@<TRIPOS>MOLECULE
R31
   86    87     1     0     0
SMALL
No Charge or Current Charge


@<TRIPOS>ATOM
      1 C1           2.4580    -1.4430    -0.3620 c6         1 R31       0.083800
      2 N2           2.2240    -1.8760     1.0570 n3         1 R31      -0.697600
      3 C3           3.1350    -2.9990     1.3790 c6         1 R31       0.149800
      4 C4           4.6190    -2.5660     1.2730 c6         1 R31       0.119000
      5 N5           4.9640    -1.7850     0.0500 n          1 R31      -0.226400
      6 C6           3.9390    -1.3540    -0.8390 c          1 R31       0.579000
      7 C7           6.3700    -1.6210    -0.2440 ca         1 R31      -0.087000
      8 C8           6.8950    -0.3560    -0.6120 ca         1 R31       0.158100
      9 C9           8.2330    -0.2510    -1.0590 ca         1 R31      -0.201000
     10 C10          9.0300    -1.3990    -1.1870 ca         1 R31      -0.068000
     11 C11          8.4920    -2.6580    -0.8870 ca         1 R31      -0.148000
     12 C12          7.1660    -2.7710    -0.4420 ca         1 R31      -0.066000
     13 O13          6.0960     0.7620    -0.4520 os         1 R31      -0.330100
     14 C14          6.5260     2.0800    -0.8290 c3         1 R31       0.166600
     15 C15          5.3600     3.0440    -0.5490 c3         1 R31      -0.087400
     16 C16          5.6980     4.4980    -0.9180 c3         1 R31       0.161600
     17 O17          4.5480     5.3030    -0.6170 os         1 R31      -0.449000
     18 C18          4.7080     6.7020    -0.9090 c3         1 R31       0.146900
     19 C19          0.7960    -2.1850     1.3580 c3         1 R31       0.174800
     20 C20         -0.1780    -0.9690     1.2220 c3         1 R31       0.143500
     21 C21         -1.6330    -1.3100     1.7000 c3         1 R31       0.120300
     22 N22          0.3800     0.2150     1.9290 n8         1 R31      -1.003200
     23 C23         -2.6600    -0.2080     1.3060 c3         1 R31      -0.100400
     24 O24         -1.6450    -1.4840     3.1320 oh         1 R31      -0.655000
     25 C25         -4.1630    -0.6400     1.2680 c3         1 R31      -0.122700
     26 C26         -4.9980     0.4270     0.5140 c          1 R31       0.594100
     27 N27         -5.6190    -0.0280    -0.6290 ns         1 R31      -0.512900
     28 O28         -5.0790     1.5930     0.8740 o          1 R31      -0.601100
     29 C29         -4.7980    -1.0490     2.6410 c3         1 R31      -0.051700
     30 C30         -6.4270     0.7930    -1.5430 c3         1 R31       0.120000
     31 C31         -7.9660     0.7180    -1.2920 c3         1 R31      -0.145000
     32 C32         -8.6950     1.4730    -2.4440 c          1 R31       0.609100
     33 N33        -10.0460     1.4980    -2.3990 nt         1 R31      -0.608000
     34 C34         -8.4410    -0.7670    -1.2650 c3         1 R31      -0.085600
     35 C35         -8.3310     1.3940     0.0630 c3         1 R31      -0.085600
     36 O36         -8.1220     2.0320    -3.3650 o          1 R31      -0.597100
     37 C37         -4.7840     0.0680     3.7160 c3         1 R31      -0.088600
     38 C38         -6.2260    -1.6220     2.4700 c3         1 R31      -0.088600
     39 O39          4.1920    -0.9300    -1.9650 o          1 R31      -0.556000
     40 H1           1.9740    -2.1460    -1.0550 h1         1 R31       0.067200
     41 H2           2.0190    -0.4510    -0.5390 h1         1 R31       0.067200
     42 H4           2.9510    -3.3690     2.3980 h1         1 R31       0.040200
     43 H5           2.9560    -3.8410     0.6930 h1         1 R31       0.040200
     44 H6           4.8540    -1.9370     2.1430 h1         1 R31       0.050700
     45 H7           5.2510    -3.4600     1.3470 h1         1 R31       0.050700
     46 H8           8.6700     0.7100    -1.3120 ha         1 R31       0.117000
     47 H9          10.0580    -1.3140    -1.5350 ha         1 R31       0.111000
     48 H10          9.1000    -3.5510    -1.0160 ha         1 R31       0.117000
     49 H11          6.7570    -3.7620    -0.2600 ha         1 R31       0.119000
     50 H12          7.4030     2.3850    -0.2430 h1         1 R31       0.032700
     51 H13          6.7820     2.1140    -1.8960 h1         1 R31       0.032700
     52 H14          4.4820     2.7210    -1.1220 hc         1 R31       0.073700
     53 H15          5.0970     2.9930     0.5140 hc         1 R31       0.073700
     54 H16          6.5690     4.8320    -0.3370 h1         1 R31       0.018200
     55 H17          5.9460     4.5590    -1.9860 h1         1 R31       0.018200
     56 H18          3.7930     7.2520    -0.6550 h1         1 R31       0.028700
     57 H19          5.5370     7.1290    -0.3290 h1         1 R31       0.028700
     58 H20          4.9150     6.8560    -1.9760 h1         1 R31       0.028700
     59 H21          0.4410    -2.9930     0.7040 h1         1 R31       0.037700
     60 H22          0.7290    -2.5590     2.3880 h1         1 R31       0.037700
     61 H23         -0.2200    -0.7240     0.1510 h1         1 R31       0.064700
     62 H24         -1.9350    -2.2410     1.1990 h1         1 R31       0.071700
     63 H25          0.0790     0.1390     2.9070 hn         1 R31       0.406000
     64 H26          1.3940     0.0510     1.9770 hn         1 R31       0.406000
     65 H28         -2.5320     0.6700     1.9500 hc         1 R31       0.060200
     66 H29         -2.4010     0.1330     0.2950 hc         1 R31       0.060200
     67 H30         -1.3160    -2.3870     3.3260 ho         1 R31       0.438000
     68 H31         -4.1990    -1.5500     0.6540 hc         1 R31       0.042700
     69 H32         -5.4900    -1.0070    -0.8540 hn         1 R31       0.308500
     70 H33         -4.2000    -1.8760     3.0410 hc         1 R31       0.063700
     71 H34         -6.0930     1.8380    -1.4860 h1         1 R31       0.070700
     72 H35         -6.2140     0.4440    -2.5630 h1         1 R31       0.070700
     73 H36        -10.5340     1.0410    -1.6430 hn         1 R31       0.314500
     74 H37        -10.5560     1.9770    -3.1260 hn         1 R31       0.314500
     75 H38         -7.9600    -1.3260    -0.4530 hc         1 R31       0.040367
     76 H39         -9.5240    -0.8410    -1.1090 hc         1 R31       0.040367
     77 H40         -8.2010    -1.2680    -2.2110 hc         1 R31       0.040367
     78 H41         -8.0240     2.4480     0.0650 hc         1 R31       0.040367
     79 H42         -9.4100     1.3560     0.2550 hc         1 R31       0.040367
     80 H43         -7.8340     0.8970     0.9030 hc         1 R31       0.040367
     81 H44         -5.4110     0.9160     3.4200 hc         1 R31       0.035700
     82 H45         -5.1700    -0.3160     4.6680 hc         1 R31       0.035700
     83 H46         -3.7680     0.4340     3.8990 hc         1 R31       0.035700
     84 H47         -6.2350    -2.4320     1.7310 hc         1 R31       0.035700
     85 H48         -6.5940    -2.0290     3.4190 hc         1 R31       0.035700
     86 H49         -6.9280    -0.8480     2.1410 hc         1 R31       0.035700
@<TRIPOS>BOND
     1     1     2 1   
     2     1     6 1   
     3     1    40 1   
     4     1    41 1   
     5     2     3 1   
     6     2    19 1   
     7     3     4 1   
     8     3    42 1   
     9     3    43 1   
    10     4     5 1   
    11     4    44 1   
    12     4    45 1   
    13     5     6 1   
    14     5     7 1   
    15     6    39 2   
    16     7     8 ar  
    17     7    12 ar  
    18     8     9 ar  
    19     8    13 1   
    20     9    10 ar  
    21     9    46 1   
    22    10    11 ar  
    23    10    47 1   
    24    11    12 ar  
    25    11    48 1   
    26    12    49 1   
    27    13    14 1   
    28    14    15 1   
    29    14    50 1   
    30    14    51 1   
    31    15    16 1   
    32    15    52 1   
    33    15    53 1   
    34    16    17 1   
    35    16    54 1   
    36    16    55 1   
    37    17    18 1   
    38    18    56 1   
    39    18    57 1   
    40    18    58 1   
    41    19    20 1   
    42    19    59 1   
    43    19    60 1   
    44    20    21 1   
    45    20    22 1   
    46    20    61 1   
    47    21    23 1   
    48    21    24 1   
    49    21    62 1   
    50    22    63 1   
    51    22    64 1   
    52    23    25 1   
    53    23    65 1   
    54    23    66 1   
    55    24    67 1   
    56    25    26 1   
    57    25    29 1   
    58    25    68 1   
    59    26    27 1   
    60    26    28 2   
    61    27    30 1   
    62    27    69 1   
    63    29    37 1   
    64    29    38 1   
    65    29    70 1   
    66    30    31 1   
    67    30    71 1   
    68    30    72 1   
    69    31    32 1   
    70    31    34 1   
    71    31    35 1   
    72    32    33 1   
    73    32    36 2   
    74    33    73 1   
    75    33    74 1   
    76    34    75 1   
    77    34    76 1   
    78    34    77 1   
    79    35    78 1   
    80    35    79 1   
    81    35    80 1   
    82    37    81 1   
    83    37    82 1   
    84    37    83 1   
    85    38    84 1   
    86    38    85 1   
    87    38    86 1   
@<TRIPOS>SUBSTRUCTURE
     1 R31         1 TEMP              0 ****  ****    0 ROOT
