@<TRIPOS>MOLECULE
R31
   86    87     1     0     0
SMALL
abcg2


@<TRIPOS>ATOM
      1 C1           2.1120    -1.4900    -0.5910 c6         1 R31       0.083800
      2 N2           2.0860    -1.6080     0.8460 n3         1 R31      -0.697600
      3 C3           2.9500    -2.6820     1.2750 c6         1 R31       0.149800
      4 C4           4.3790    -2.3240     0.9480 c6         1 R31       0.119000
      5 N5           4.5150    -1.9770    -0.4600 n          1 R31      -0.226400
      6 C6           3.4900    -1.5320    -1.2160 c          1 R31       0.579000
      7 C7           5.8320    -1.8910    -0.9770 ca         1 R31      -0.087000
      8 C8           6.4740    -0.6450    -1.0180 ca         1 R31       0.158100
      9 C9           7.7820    -0.5710    -1.4900 ca         1 R31      -0.201000
     10 C10          8.4350    -1.7250    -1.9080 ca         1 R31      -0.068000
     11 C11          7.8040    -2.9570    -1.8630 ca         1 R31      -0.148000
     12 C12          6.4970    -3.0290    -1.3970 ca         1 R31      -0.066000
     13 O13          5.7560     0.4010    -0.5850 os         1 R31      -0.330100
     14 C14          6.3400     1.6920    -0.6040 c3         1 R31       0.166600
     15 C15          5.3040     2.6770    -0.1030 c3         1 R31      -0.087400
     16 C16          5.8730     4.0830    -0.0770 c3         1 R31       0.161600
     17 O17          4.8780     4.9710     0.3640 os         1 R31      -0.449000
     18 C18          5.3170     6.3050     0.3870 c3         1 R31       0.146900
     19 C19          0.7410    -1.7540     1.3610 c3         1 R31       0.174800
     20 C20         -0.1890    -0.5900     1.0250 c3         1 R31       0.143500
     21 C21         -1.5420    -0.7940     1.7400 c3         1 R31       0.120300
     22 N22          0.4690     0.6730     1.3040 n8         1 R31      -1.003200
     23 C23         -2.5840     0.2090     1.2450 c3         1 R31      -0.100400
     24 O24         -1.3860    -0.7820     3.1460 oh         1 R31      -0.655000
     25 C25         -4.0420    -0.1420     1.5700 c3         1 R31      -0.122700
     26 C26         -4.9520     0.7740     0.7700 c          1 R31       0.594100
     27 N27         -5.9270     0.1650     0.0750 ns         1 R31      -0.512900
     28 O28         -4.8110     1.9910     0.7560 o          1 R31      -0.601100
     29 C29         -4.4250    -0.1200     3.0690 c3         1 R31      -0.051700
     30 C30         -6.9210     0.9050    -0.6730 c3         1 R31       0.120000
     31 C31         -7.8660    -0.0290    -1.4390 c3         1 R31      -0.145000
     32 C32         -8.8440     0.8570    -2.2260 c          1 R31       0.609100
     33 N33         -9.7640     0.2030    -2.9490 nt         1 R31      -0.608000
     34 C34         -7.0790    -0.9030    -2.4260 c3         1 R31      -0.085600
     35 C35         -8.6600    -0.9040    -0.4570 c3         1 R31      -0.085600
     36 O36         -8.7900     2.0780    -2.1980 o          1 R31      -0.597100
     37 C37         -4.1440     1.2010     3.7780 c3         1 R31      -0.088600
     38 C38         -5.8840    -0.5250     3.2740 c3         1 R31      -0.088600
     39 O39          3.6350    -1.2090    -2.3860 o          1 R31      -0.556000
     40 H1           1.5260    -2.2860    -1.0870 h1         1 R31       0.067200
     41 H2           1.6680    -0.5400    -0.8910 h1         1 R31       0.067200
     42 H4           2.8650    -2.8100     2.3550 h1         1 R31       0.040200
     43 H5           2.6850    -3.6480     0.8120 h1         1 R31       0.040200
     44 H6           4.7100    -1.4870     1.5710 h1         1 R31       0.050700
     45 H7           5.0300    -3.1720     1.1620 h1         1 R31       0.050700
     46 H8           8.3060     0.3740    -1.5390 ha         1 R31       0.117000
     47 H9           9.4520    -1.6480    -2.2700 ha         1 R31       0.111000
     48 H10          8.3160    -3.8530    -2.1880 ha         1 R31       0.117000
     49 H11          5.9810    -3.9810    -1.3530 ha         1 R31       0.119000
     50 H12          7.2320     1.7120     0.0330 h1         1 R31       0.032700
     51 H13          6.6550     1.9540    -1.6200 h1         1 R31       0.032700
     52 H14          4.4290     2.6490    -0.7580 hc         1 R31       0.073700
     53 H15          4.9790     2.3900     0.9000 hc         1 R31       0.073700
     54 H16          6.7500     4.1210     0.5880 h1         1 R31       0.018200
     55 H17          6.2270     4.3650    -1.0800 h1         1 R31       0.018200
     56 H18          4.4890     6.9270     0.7250 h1         1 R31       0.028700
     57 H19          6.1600     6.4510     1.0730 h1         1 R31       0.028700
     58 H20          5.6280     6.6530    -0.6060 h1         1 R31       0.028700
     59 H21          0.2660    -2.6820     0.9970 h1         1 R31       0.037700
     60 H22          0.8140    -1.8480     2.4480 h1         1 R31       0.037700
     61 H23         -0.4070    -0.6200    -0.0490 h1         1 R31       0.064700
     62 H24         -1.8960    -1.8030     1.4930 h1         1 R31       0.071700
     63 H25         -0.1690     1.4540     1.2200 hn         1 R31       0.406000
     64 H26          0.8520     0.6910     2.2400 hn         1 R31       0.406000
     65 H28         -2.3500     1.2150     1.6040 hc         1 R31       0.060200
     66 H29         -2.4910     0.2570     0.1550 hc         1 R31       0.060200
     67 H30         -1.1200     0.1060     3.4080 ho         1 R31       0.438000
     68 H31         -4.2080    -1.1720     1.2290 hc         1 R31       0.042700
     69 H32         -6.0080    -0.8350     0.1510 hn         1 R31       0.308500
     70 H33         -3.8080    -0.8850     3.5440 hc         1 R31       0.063700
     71 H34         -7.4990     1.5360     0.0080 h1         1 R31       0.070700
     72 H35         -6.4140     1.5710    -1.3730 h1         1 R31       0.070700
     73 H36         -9.8270    -0.8000    -2.9790 hn         1 R31       0.314500
     74 H37        -10.4430     0.7190    -3.4850 hn         1 R31       0.314500
     75 H38         -6.3870    -1.5680    -1.9090 hc         1 R31       0.040367
     76 H39         -7.7380    -1.5410    -3.0140 hc         1 R31       0.040367
     77 H40         -6.4970    -0.2930    -3.1180 hc         1 R31       0.040367
     78 H41         -9.2650    -0.2950     0.2150 hc         1 R31       0.040367
     79 H42         -9.3230    -1.6030    -0.9690 hc         1 R31       0.040367
     80 H43         -7.9940    -1.5110     0.1580 hc         1 R31       0.040367
     81 H44         -4.7500     2.0150     3.3810 hc         1 R31       0.035700
     82 H45         -4.3740     1.1050     4.8400 hc         1 R31       0.035700
     83 H46         -3.0990     1.5020     3.7020 hc         1 R31       0.035700
     84 H47         -6.1200    -1.4640     2.7690 hc         1 R31       0.035700
     85 H48         -6.0920    -0.6640     4.3360 hc         1 R31       0.035700
     86 H49         -6.5770     0.2340     2.9060 hc         1 R31       0.035700
@<TRIPOS>BOND
     1     1     2 1   
     2     1     6 1   
     3     1    40 1   
     4     1    41 1   
     5     2     3 1   
     6     2    19 1   
     7     3     4 1   
     8     3    42 1   
     9     3    43 1   
    10     4     5 1   
    11     4    44 1   
    12     4    45 1   
    13     5     6 1   
    14     5     7 1   
    15     6    39 2   
    16     7     8 ar  
    17     7    12 ar  
    18     8     9 ar  
    19     8    13 1   
    20     9    10 ar  
    21     9    46 1   
    22    10    11 ar  
    23    10    47 1   
    24    11    12 ar  
    25    11    48 1   
    26    12    49 1   
    27    13    14 1   
    28    14    15 1   
    29    14    50 1   
    30    14    51 1   
    31    15    16 1   
    32    15    52 1   
    33    15    53 1   
    34    16    17 1   
    35    16    54 1   
    36    16    55 1   
    37    17    18 1   
    38    18    56 1   
    39    18    57 1   
    40    18    58 1   
    41    19    20 1   
    42    19    59 1   
    43    19    60 1   
    44    20    21 1   
    45    20    22 1   
    46    20    61 1   
    47    21    23 1   
    48    21    24 1   
    49    21    62 1   
    50    22    63 1   
    51    22    64 1   
    52    23    25 1   
    53    23    65 1   
    54    23    66 1   
    55    24    67 1   
    56    25    26 1   
    57    25    29 1   
    58    25    68 1   
    59    26    27 1   
    60    26    28 2   
    61    27    30 1   
    62    27    69 1   
    63    29    37 1   
    64    29    38 1   
    65    29    70 1   
    66    30    31 1   
    67    30    71 1   
    68    30    72 1   
    69    31    32 1   
    70    31    34 1   
    71    31    35 1   
    72    32    33 1   
    73    32    36 2   
    74    33    73 1   
    75    33    74 1   
    76    34    75 1   
    77    34    76 1   
    78    34    77 1   
    79    35    78 1   
    80    35    79 1   
    81    35    80 1   
    82    37    81 1   
    83    37    82 1   
    84    37    83 1   
    85    38    84 1   
    86    38    85 1   
    87    38    86 1   
@<TRIPOS>SUBSTRUCTURE
     1 R31         1 TEMP              0 ****  ****    0 ROOT
