@<TRIPOS>MOLECULE
R32
   78    79     1     0     0
SMALL
No Charge or Current Charge


@<TRIPOS>ATOM
      1 C1         -57.4270  -161.2600  -136.3690 ca         1 R32      -0.093000
      2 C2         -58.1060  -160.2700  -137.1110 ca         1 R32      -0.041000
      3 C3         -57.7140  -158.9160  -136.9480 ca         1 R32       0.132000
      4 C4         -56.5960  -158.5910  -136.1600 ca         1 R32      -0.101000
      5 C5         -55.8830  -159.5980  -135.4890 ca         1 R32      -0.098000
      6 C6         -56.3090  -160.9320  -135.5840 ca         1 R32      -0.104000
      7 N7         -59.3110  -160.6300  -137.8160 n          1 R32      -0.237400
      8 Cl1        -58.6280  -157.5890  -137.6700 cl         1 R32      -0.201000
      9 C9         -59.3260  -160.4170  -139.2890 c6         1 R32       0.123000
     10 C10        -60.7390  -160.3050  -139.9510 c6         1 R32       0.192200
     11 N11        -61.5740  -161.4750  -139.5140 n3         1 R32      -0.739600
     12 C12        -61.6940  -161.5270  -138.0110 c6         1 R32       0.085800
     13 C13        -60.4270  -161.2100  -137.1660 c          1 R32       0.571000
     14 O14        -60.4210  -161.4390  -135.9600 o          1 R32      -0.556000
     15 C15        -60.5170  -160.3040  -141.4960 c3         1 R32      -0.104100
     16 C16        -61.3920  -158.9310  -139.5920 c3         1 R32      -0.104100
     17 C17        -62.9060  -161.6230  -140.1960 c3         1 R32       0.168800
     18 C18        -63.6330  -162.9750  -139.9170 c3         1 R32       0.174500
     19 C19        -64.9240  -163.1390  -140.7790 c3         1 R32       0.172300
     20 C20        -65.9330  -164.1470  -140.1640 c3         1 R32      -0.101400
     21 C21        -67.2440  -164.3550  -140.9900 c3         1 R32      -0.130700
     22 C22        -67.8710  -162.9870  -141.3500 c          1 R32       0.595100
     23 N23        -67.9150  -162.7050  -142.6980 ns         1 R32      -0.512900
     24 C24        -68.4060  -161.4550  -143.2900 c3         1 R32       0.109000
     25 C25        -69.8900  -161.5090  -143.7600 c3         1 R32      -0.144000
     26 N26        -62.6860  -164.1040  -140.1570 n8         1 R32      -0.991200
     27 O27        -64.5000  -163.6310  -142.0500 oh         1 R32      -0.648000
     28 C28        -68.2840  -165.2980  -140.2960 c3         1 R32      -0.051700
     29 O29        -68.2780  -162.2030  -140.5040 o          1 R32      -0.605100
     30 C30        -67.6970  -166.6860  -139.9310 c3         1 R32      -0.092100
     31 C31        -69.5620  -165.4820  -141.1530 c3         1 R32      -0.092100
     32 C32        -70.1320  -162.7950  -144.6040 c          1 R32       0.599100
     33 C33        -70.1790  -160.2570  -144.6370 c3         1 R32      -0.078100
     34 C34        -70.8460  -161.4720  -142.5310 c3         1 R32      -0.078100
     35 N35        -69.3740  -162.9470  -145.7140 nt         1 R32      -0.618000
     36 O36        -70.9560  -163.6510  -144.3270 o          1 R32      -0.599100
     37 H1         -57.7550  -162.2960  -136.4210 ha         1 R32       0.126000
     38 H2         -56.2940  -157.5520  -136.0540 ha         1 R32       0.131000
     39 H3         -55.0210  -159.3420  -134.8770 ha         1 R32       0.120000
     40 H4         -55.7780  -161.7120  -135.0410 ha         1 R32       0.121000
     41 H5         -58.8080  -161.2760  -139.7370 h1         1 R32       0.053200
     42 H6         -58.7290  -159.5340  -139.5480 h1         1 R32       0.053200
     43 H8         -62.4570  -160.8120  -137.6690 h1         1 R32       0.065200
     44 H9         -62.0230  -162.5240  -137.6880 h1         1 R32       0.065200
     45 H10        -60.1810  -161.2870  -141.8490 hc         1 R32       0.046200
     46 H11        -61.4260  -160.0420  -142.0480 hc         1 R32       0.046200
     47 H12        -59.7530  -159.5730  -141.7880 hc         1 R32       0.046200
     48 H13        -61.5210  -158.8020  -138.5120 hc         1 R32       0.046200
     49 H14        -60.7710  -158.0970  -139.9400 hc         1 R32       0.046200
     50 H15        -62.3770  -158.8130  -140.0590 hc         1 R32       0.046200
     51 H16        -62.7840  -161.5580  -141.2840 h1         1 R32       0.051200
     52 H17        -63.5780  -160.8050  -139.9020 h1         1 R32       0.051200
     53 H18        -63.9120  -162.9880  -138.8550 h1         1 R32       0.022700
     54 H19        -65.4100  -162.1600  -140.8810 h1         1 R32       0.027700
     55 H20        -65.4230  -165.1080  -140.0370 hc         1 R32       0.068700
     56 H21        -66.2010  -163.7990  -139.1590 hc         1 R32       0.068700
     57 H22        -66.9570  -164.8430  -141.9300 hc         1 R32       0.049700
     58 H23        -67.5180  -163.4050  -143.3140 hn         1 R32       0.310500
     59 H24        -67.7610  -161.2280  -144.1500 h1         1 R32       0.056700
     60 H25        -68.2730  -160.6340  -142.5720 h1         1 R32       0.056700
     61 H26        -61.7500  -163.7070  -139.9950 hn         1 R32       0.403000
     62 H27        -62.7830  -164.7840  -139.3940 hn         1 R32       0.403000
     63 H29        -63.6410  -164.0610  -141.8090 ho         1 R32       0.425000
     64 H30        -68.5930  -164.8220  -139.3560 hc         1 R32       0.064700
     65 H31        -66.9150  -166.6010  -139.1680 hc         1 R32       0.038200
     66 H32        -68.4750  -167.3410  -139.5220 hc         1 R32       0.038200
     67 H33        -67.2700  -167.1750  -140.8150 hc         1 R32       0.038200
     68 H34        -70.2680  -166.1580  -140.6570 hc         1 R32       0.038200
     69 H35        -70.0790  -164.5300  -141.3090 hc         1 R32       0.038200
     70 H36        -69.3170  -165.9060  -142.1350 hc         1 R32       0.038200
     71 H37        -70.0520  -159.3350  -144.0570 hc         1 R32       0.045700
     72 H38        -69.5030  -160.2010  -145.4990 hc         1 R32       0.045700
     73 H39        -71.2080  -160.2770  -145.0180 hc         1 R32       0.045700
     74 H40        -70.6630  -160.5800  -141.9180 hc         1 R32       0.045700
     75 H41        -71.8950  -161.4500  -142.8500 hc         1 R32       0.045700
     76 H42        -70.7110  -162.3510  -141.8920 hc         1 R32       0.045700
     77 H43        -69.5050  -163.7640  -146.2920 hn         1 R32       0.312000
     78 H44        -68.6970  -162.2430  -145.9670 hn         1 R32       0.312000
@<TRIPOS>BOND
     1     1     2 ar  
     2     1     6 ar  
     3     1    37 1   
     4     2     3 ar  
     5     2     7 1   
     6     3     4 ar  
     7     3     8 1   
     8     4     5 ar  
     9     4    38 1   
    10     5     6 ar  
    11     5    39 1   
    12     6    40 1   
    13     7     9 1   
    14     7    13 1   
    15     9    10 1   
    16     9    41 1   
    17     9    42 1   
    18    10    11 1   
    19    10    15 1   
    20    10    16 1   
    21    11    12 1   
    22    11    17 1   
    23    12    13 1   
    24    12    43 1   
    25    12    44 1   
    26    13    14 2   
    27    15    45 1   
    28    15    46 1   
    29    15    47 1   
    30    16    48 1   
    31    16    49 1   
    32    16    50 1   
    33    17    18 1   
    34    17    51 1   
    35    17    52 1   
    36    18    19 1   
    37    18    26 1   
    38    18    53 1   
    39    19    20 1   
    40    19    27 1   
    41    19    54 1   
    42    20    21 1   
    43    20    55 1   
    44    20    56 1   
    45    21    22 1   
    46    21    28 1   
    47    21    57 1   
    48    22    23 1   
    49    22    29 2   
    50    23    24 1   
    51    23    58 1   
    52    24    25 1   
    53    24    59 1   
    54    24    60 1   
    55    25    32 1   
    56    25    33 1   
    57    25    34 1   
    58    26    61 1   
    59    26    62 1   
    60    27    63 1   
    61    28    30 1   
    62    28    31 1   
    63    28    64 1   
    64    30    65 1   
    65    30    66 1   
    66    30    67 1   
    67    31    68 1   
    68    31    69 1   
    69    31    70 1   
    70    32    35 1   
    71    32    36 2   
    72    33    71 1   
    73    33    72 1   
    74    33    73 1   
    75    34    74 1   
    76    34    75 1   
    77    34    76 1   
    78    35    77 1   
    79    35    78 1   
@<TRIPOS>SUBSTRUCTURE
     1 R32         1 TEMP              0 ****  ****    0 ROOT
