@<TRIPOS>MOLECULE
R32
   78    79     1     0     0
SMALL
abcg2


@<TRIPOS>ATOM
      1 C1         -58.2120  -160.8100  -136.1450 ca         1 R32      -0.093000
      2 C2         -58.7210  -159.8910  -137.0560 ca         1 R32      -0.041000
      3 C3         -58.1830  -158.6050  -137.0890 ca         1 R32       0.132000
      4 C4         -57.1580  -158.2370  -136.2280 ca         1 R32      -0.101000
      5 C5         -56.6610  -159.1660  -135.3220 ca         1 R32      -0.098000
      6 C6         -57.1870  -160.4530  -135.2780 ca         1 R32      -0.104000
      7 N7         -59.7540  -160.2820  -137.9590 n          1 R32      -0.237400
      8 CL1        -58.8080  -157.4340  -138.2210 cl         1 R32      -0.201000
      9 C9         -59.3270  -160.8880  -139.2240 c6         1 R32       0.123000
     10 C10        -60.4220  -160.9080  -140.2930 c6         1 R32       0.192200
     11 N11        -61.6140  -161.4990  -139.6450 n3         1 R32      -0.739600
     12 C12        -62.0940  -160.6940  -138.5320 c6         1 R32       0.085800
     13 C13        -61.0430  -160.1970  -137.5690 c          1 R32       0.571000
     14 O14        -61.3800  -159.7090  -136.4890 o          1 R32      -0.556000
     15 C15        -59.9040  -161.8180  -141.4110 c3         1 R32      -0.104100
     16 C16        -60.6710  -159.4980  -140.8560 c3         1 R32      -0.104100
     17 C17        -62.7190  -161.8550  -140.5340 c3         1 R32       0.168800
     18 C18        -63.6010  -162.9580  -139.9440 c3         1 R32       0.174500
     19 C19        -64.7730  -163.2620  -140.8800 c3         1 R32       0.172300
     20 C20        -65.7080  -164.3210  -140.3000 c3         1 R32      -0.101400
     21 C21        -67.0190  -164.4970  -141.0820 c3         1 R32      -0.130700
     22 C22        -67.7630  -163.1650  -141.0720 c          1 R32       0.595100
     23 N23        -67.9300  -162.5850  -142.2790 ns         1 R32      -0.512900
     24 C24        -68.5090  -161.2730  -142.4920 c3         1 R32       0.109000
     25 C25        -69.9280  -161.3050  -143.1070 c3         1 R32      -0.144000
     26 N26        -62.7750  -164.1410  -139.6830 n8         1 R32      -0.991200
     27 O27        -64.2650  -163.6680  -142.1620 oh         1 R32      -0.648000
     28 C28        -67.9160  -165.6200  -140.5160 c3         1 R32      -0.051700
     29 O29        -68.1530  -162.6510  -140.0230 o          1 R32      -0.605100
     30 C30        -67.2160  -166.9800  -140.5610 c3         1 R32      -0.092100
     31 C31        -69.2450  -165.6940  -141.2720 c3         1 R32      -0.092100
     32 C32        -69.9260  -162.1970  -144.3630 c          1 R32       0.599100
     33 C33        -70.3270  -159.8710  -143.4930 c3         1 R32      -0.078100
     34 C34        -70.9280  -161.8560  -142.0900 c3         1 R32      -0.078100
     35 N35        -69.0310  -161.8800  -145.3210 nt         1 R32      -0.618000
     36 O36        -70.6850  -163.1560  -144.4900 o          1 R32      -0.599100
     37 H1         -58.6340  -161.8060  -136.1270 ha         1 R32       0.126000
     38 H2         -56.7570  -157.2330  -136.2690 ha         1 R32       0.131000
     39 H3         -55.8620  -158.8790  -134.6500 ha         1 R32       0.120000
     40 H4         -56.8010  -161.1770  -134.5720 ha         1 R32       0.121000
     41 H5         -58.9910  -161.9100  -139.0300 h1         1 R32       0.053200
     42 H6         -58.4750  -160.3160  -139.5930 h1         1 R32       0.053200
     43 H8         -62.6480  -159.8010  -138.8660 h1         1 R32       0.065200
     44 H9         -62.7940  -161.2780  -137.9340 h1         1 R32       0.065200
     45 H10        -59.8970  -162.8600  -141.0880 hc         1 R32       0.046200
     46 H11        -60.5080  -161.7340  -142.3130 hc         1 R32       0.046200
     47 H12        -58.8860  -161.5260  -141.6710 hc         1 R32       0.046200
     48 H13        -60.9310  -158.7810  -140.0790 hc         1 R32       0.046200
     49 H14        -59.7730  -159.1330  -141.3570 hc         1 R32       0.046200
     50 H15        -61.4800  -159.5240  -141.5870 hc         1 R32       0.046200
     51 H16        -62.3160  -162.2230  -141.4710 h1         1 R32       0.051200
     52 H17        -63.3530  -160.9850  -140.7620 h1         1 R32       0.051200
     53 H18        -64.0670  -162.5810  -139.0240 h1         1 R32       0.022700
     54 H19        -65.3190  -162.3190  -141.0010 h1         1 R32       0.027700
     55 H20        -65.1720  -165.2700  -140.2760 hc         1 R32       0.068700
     56 H21        -65.9520  -164.0520  -139.2690 hc         1 R32       0.068700
     57 H22        -66.7810  -164.7620  -142.1170 hc         1 R32       0.049700
     58 H23        -67.5590  -163.0680  -143.0820 hn         1 R32       0.310500
     59 H24        -67.8340  -160.7010  -143.1310 h1         1 R32       0.056700
     60 H25        -68.5600  -160.7700  -141.5290 h1         1 R32       0.056700
     61 H26        -61.9260  -163.8250  -139.2230 hn         1 R32       0.403000
     62 H27        -63.2420  -164.7660  -139.0360 hn         1 R32       0.403000
     63 H29        -64.9350  -163.4810  -142.8290 ho         1 R32       0.425000
     64 H30        -68.1270  -165.3720  -139.4710 hc         1 R32       0.064700
     65 H31        -66.3270  -167.0140  -139.9310 hc         1 R32       0.038200
     66 H32        -67.8960  -167.7620  -140.2170 hc         1 R32       0.038200
     67 H33        -66.9160  -167.2240  -141.5840 hc         1 R32       0.038200
     68 H34        -69.8620  -166.5050  -140.8800 hc         1 R32       0.038200
     69 H35        -69.8150  -164.7690  -141.1820 hc         1 R32       0.038200
     70 H36        -69.0750  -165.8830  -142.3350 hc         1 R32       0.038200
     71 H37        -70.3640  -159.2480  -142.5960 hc         1 R32       0.045700
     72 H38        -69.6190  -159.4180  -144.1890 hc         1 R32       0.045700
     73 H39        -71.3160  -159.8610  -143.9540 hc         1 R32       0.045700
     74 H40        -70.9300  -161.2190  -141.2050 hc         1 R32       0.045700
     75 H41        -71.9340  -161.8730  -142.5070 hc         1 R32       0.045700
     76 H42        -70.6720  -162.8690  -141.7870 hc         1 R32       0.045700
     77 H43        -69.0140  -162.4190  -146.1720 hn         1 R32       0.312000
     78 H44        -68.4380  -161.0700  -145.2670 hn         1 R32       0.312000
@<TRIPOS>BOND
     1     1     2 ar  
     2     1     6 ar  
     3     1    37 1   
     4     2     3 ar  
     5     2     7 1   
     6     3     4 ar  
     7     3     8 1   
     8     4     5 ar  
     9     4    38 1   
    10     5     6 ar  
    11     5    39 1   
    12     6    40 1   
    13     7     9 1   
    14     7    13 1   
    15     9    10 1   
    16     9    41 1   
    17     9    42 1   
    18    10    11 1   
    19    10    15 1   
    20    10    16 1   
    21    11    12 1   
    22    11    17 1   
    23    12    13 1   
    24    12    43 1   
    25    12    44 1   
    26    13    14 2   
    27    15    45 1   
    28    15    46 1   
    29    15    47 1   
    30    16    48 1   
    31    16    49 1   
    32    16    50 1   
    33    17    18 1   
    34    17    51 1   
    35    17    52 1   
    36    18    19 1   
    37    18    26 1   
    38    18    53 1   
    39    19    20 1   
    40    19    27 1   
    41    19    54 1   
    42    20    21 1   
    43    20    55 1   
    44    20    56 1   
    45    21    22 1   
    46    21    28 1   
    47    21    57 1   
    48    22    23 1   
    49    22    29 2   
    50    23    24 1   
    51    23    58 1   
    52    24    25 1   
    53    24    59 1   
    54    24    60 1   
    55    25    32 1   
    56    25    33 1   
    57    25    34 1   
    58    26    61 1   
    59    26    62 1   
    60    27    63 1   
    61    28    30 1   
    62    28    31 1   
    63    28    64 1   
    64    30    65 1   
    65    30    66 1   
    66    30    67 1   
    67    31    68 1   
    68    31    69 1   
    69    31    70 1   
    70    32    35 1   
    71    32    36 2   
    72    33    71 1   
    73    33    72 1   
    74    33    73 1   
    75    34    74 1   
    76    34    75 1   
    77    34    76 1   
    78    35    77 1   
    79    35    78 1   
@<TRIPOS>SUBSTRUCTURE
     1 R32         1 TEMP              0 ****  ****    0 ROOT
