@<TRIPOS>MOLECULE
R34
   51    55     1     0     0
SMALL
No Charge or Current Charge


@<TRIPOS>ATOM
      1 C6          -5.4290     0.8400    -1.1030 ca         1 R34      -0.100800
      2 C21         -4.3490    -0.0500    -1.0260 ca         1 R34      -0.031000
      3 C5          -5.6620     1.7880    -0.1460 ca         1 R34      -0.043200
      4 N7          -6.7890     2.5290    -0.4740 na         1 R34      -0.088700
      5 C4          -4.8180     1.9160     0.9660 ca         1 R34      -0.130000
      6 C3          -3.7210     1.0350     1.0750 ca         1 R34      -0.077000
      7 C2          -3.4720     0.0340     0.0900 cp         1 R34      -0.075000
      8 C1          -7.3240     3.6310     0.3400 c3         1 R34       0.065900
      9 C7          -2.2930    -0.8750     0.2190 cp         1 R34      -0.030000
     10 C10         -2.4110    -2.3010     0.1490 ca         1 R34       0.139000
     11 C11         -1.2740    -3.1250     0.2720 ca         1 R34      -0.106000
     12 C12         -0.0320    -2.5110     0.4660 ca         1 R34      -0.074200
     13 C13          0.1120    -1.1510     0.5460 ca         1 R34       0.091400
     14 C14         -1.0040    -0.3120     0.4280 ca         1 R34      -0.049000
     15 N21          1.1980    -3.0930     0.6140 na         1 R34      -0.322600
     16 N22          1.4340    -0.7820     0.7460 nc         1 R34      -0.636100
     17 C23          2.0240    -1.9890     0.7730 cd         1 R34       0.628100
     18 O25          3.3590    -2.2160     0.9580 os         1 R34      -0.326700
     19 C26          4.2840    -1.2040     1.0680 ca         1 R34       0.102100
     20 C27          5.1560    -1.1980     2.1610 ca         1 R34      -0.076000
     21 C28          6.1250    -0.1920     2.2760 ca         1 R34      -0.112000
     22 C29          6.2430     0.8190     1.2980 ca         1 R34      -0.015300
     23 C30          5.3700     0.8150     0.1700 ca         1 R34      -0.148600
     24 C31          4.4000    -0.2170     0.0720 ca         1 R34      -0.076000
     25 C32          7.2980     1.9000     1.5220 c3         1 R34      -0.055800
     26 Cl1         -3.9740    -3.0970    -0.0410 cl         1 R34      -0.198000
     27 C8          -6.4500     0.9740    -2.0990 cc         1 R34      -0.235200
     28 C9          -7.2780     2.0170    -1.6970 cd         1 R34      -0.161100
     29 C18          5.4550     1.8640    -0.9300 c          1 R34       0.618700
     30 N8           4.2790     2.0940    -1.6410 ns         1 R34      -0.390400
     31 O20          6.4890     2.4550    -1.2170 o          1 R34      -0.564100
     32 O21          4.2840     2.8390    -2.8850 oh         1 R34      -0.418100
     33 H1          -4.1840    -0.7820    -1.8120 ha         1 R34       0.121000
     34 H2          -4.9980     2.6710     1.7270 ha         1 R34       0.114000
     35 H3          -3.0570     1.1190     1.9330 ha         1 R34       0.114000
     36 H4          -6.5670     4.4200     0.4340 h1         1 R34       0.048033
     37 H5          -8.2200     4.0450    -0.1390 h1         1 R34       0.048033
     38 H6          -7.5860     3.2570     1.3370 h1         1 R34       0.048033
     39 H7          -1.3640    -4.2070     0.2240 ha         1 R34       0.134000
     40 H8          -0.8770     0.7650     0.4880 ha         1 R34       0.136000
     41 H9           1.4690    -4.0650     0.6130 hn         1 R34       0.372000
     42 H11          5.0780    -1.9710     2.9210 ha         1 R34       0.133000
     43 H12          6.7890    -0.1970     3.1380 ha         1 R34       0.123000
     44 H13          3.7420    -0.2820    -0.7890 ha         1 R34       0.135000
     45 H14          8.1270     1.7970     0.8110 hc         1 R34       0.054367
     46 H15          6.8720     2.9030     1.4110 hc         1 R34       0.054367
     47 H16          7.7290     1.8480     2.5290 hc         1 R34       0.054367
     48 H17         -6.5700     0.3810    -3.0040 ha         1 R34       0.207000
     49 H18         -8.1620     2.4250    -2.1800 h4         1 R34       0.210000
     50 H19          3.4610     1.5160    -1.4640 hn         1 R34       0.347500
     51 H20          3.5920     3.5280    -2.7470 ho         1 R34       0.442000
@<TRIPOS>BOND
     1     1     2 ar  
     2     1     3 ar  
     3     1    27 1   
     4     2     7 ar  
     5     2    33 1   
     6     3     4 1   
     7     3     5 ar  
     8     4     8 1   
     9     4    28 1   
    10     5     6 ar  
    11     5    34 1   
    12     6     7 ar  
    13     6    35 1   
    14     7     9 1   
    15     8    36 1   
    16     8    37 1   
    17     8    38 1   
    18     9    10 ar  
    19     9    14 ar  
    20    10    11 ar  
    21    10    26 1   
    22    11    12 ar  
    23    11    39 1   
    24    12    13 ar  
    25    12    15 1   
    26    13    14 ar  
    27    13    16 1   
    28    14    40 1   
    29    15    17 1   
    30    15    41 1   
    31    16    17 2   
    32    17    18 1   
    33    18    19 1   
    34    19    20 ar  
    35    19    24 ar  
    36    20    21 ar  
    37    20    42 1   
    38    21    22 ar  
    39    21    43 1   
    40    22    23 ar  
    41    22    25 1   
    42    23    24 ar  
    43    23    29 1   
    44    24    44 1   
    45    25    45 1   
    46    25    46 1   
    47    25    47 1   
    48    27    28 2   
    49    27    48 1   
    50    28    49 1   
    51    29    30 1   
    52    29    31 2   
    53    30    32 1   
    54    30    50 1   
    55    32    51 1   
@<TRIPOS>SUBSTRUCTURE
     1 R34         1 TEMP              0 ****  ****    0 ROOT
