@<TRIPOS>MOLECULE
R34
   51    55     1     0     0
SMALL
bcc


@<TRIPOS>ATOM
      1 C6          -5.3550     0.9100    -1.0500 ca         1 R34      -0.100800
      2 C21         -4.2680     0.0340    -1.0140 ca         1 R34      -0.049000
      3 C5          -5.6360     1.7100     0.0810 ca         1 R34      -0.043200
      4 N7          -6.7380     2.4640    -0.2000 na         1 R34      -0.059400
      5 C4          -4.8510     1.6570     1.2310 ca         1 R34      -0.148000
      6 C3          -3.7830     0.7830     1.2360 ca         1 R34      -0.095000
      7 C2          -3.4840    -0.0340     0.1270 cp         1 R34      -0.075000
      8 C1          -7.3350     3.4310     0.6890 c3         1 R34       0.036600
      9 C7          -2.3000    -0.9240     0.1890 cp         1 R34      -0.030000
     10 C10         -2.3930    -2.3200     0.0590 ca         1 R34       0.047400
     11 C11         -1.2940    -3.1630     0.1200 ca         1 R34      -0.124000
     12 C12         -0.0670    -2.5600     0.3220 ca         1 R34      -0.074200
     13 C13          0.0760    -1.1710     0.4690 ca         1 R34       0.091400
     14 C14         -1.0450    -0.3570     0.4000 ca         1 R34      -0.067000
     15 N21          1.2080    -3.0580     0.4340 na         1 R34      -0.272300
     16 N22          1.4010    -0.8460     0.6650 nc         1 R34      -0.636100
     17 C23          2.0120    -1.9880     0.6360 cd         1 R34       0.628100
     18 O25          3.3130    -2.2050     0.7830 os         1 R34      -0.326700
     19 C26          4.1230    -1.0970     0.9590 ca         1 R34       0.102100
     20 C27          4.5190    -0.7460     2.2330 ca         1 R34      -0.094000
     21 C28          5.3810     0.3310     2.3930 ca         1 R34      -0.130000
     22 C29          5.8600     1.0580     1.3080 ca         1 R34      -0.015300
     23 C30          5.4330     0.6780     0.0290 ca         1 R34      -0.148600
     24 C31          4.5640    -0.3920    -0.1450 ca         1 R34      -0.094000
     25 C32          6.7870     2.2170     1.5330 c3         1 R34      -0.055800
     26 CL1         -3.9490    -3.0710    -0.1370 cl         1 R34      -0.106400
     27 C8          -6.3430     1.2280    -2.0310 cc         1 R34      -0.185200
     28 C9          -7.1540     2.1720    -1.4700 cd         1 R34      -0.111100
     29 C18          5.9560     1.3770    -1.1880 c          1 R34       0.685700
     30 N8           4.9790     1.8540    -1.9770 ns         1 R34      -0.457400
     31 O20          7.1440     1.5000    -1.4220 o          1 R34      -0.564100
     32 O21          5.2730     2.3420    -3.2120 oh         1 R34      -0.379100
     33 H1          -4.0330    -0.5780    -1.8770 ha         1 R34       0.139000
     34 H2          -5.0640     2.2730     2.0960 ha         1 R34       0.132000
     35 H3          -3.1590     0.7170     2.1190 ha         1 R34       0.132000
     36 H4          -6.6720     4.2800     0.8530 h1         1 R34       0.048033
     37 H5          -8.2610     3.7940     0.2510 h1         1 R34       0.048033
     38 H6          -7.5680     2.9770     1.6520 h1         1 R34       0.048033
     39 H7          -1.3990    -4.2350     0.0240 ha         1 R34       0.152000
     40 H8          -0.9500     0.7170     0.4970 ha         1 R34       0.154000
     41 H9           1.4960    -4.0240     0.3840 hn         1 R34       0.321700
     42 H11          4.1690    -1.3020     3.0920 ha         1 R34       0.151000
     43 H12          5.6860     0.6120     3.3930 ha         1 R34       0.141000
     44 H13          4.2500    -0.6960    -1.1370 ha         1 R34       0.153000
     45 H14          7.8010     1.9860     1.2100 hc         1 R34       0.054367
     46 H15          6.4660     3.1050     0.9880 hc         1 R34       0.054367
     47 H16          6.8240     2.4740     2.5910 hc         1 R34       0.054367
     48 H17         -6.4420     0.8120    -3.0210 ha         1 R34       0.157000
     49 H18         -8.0180     2.6690    -1.8840 h4         1 R34       0.160000
     50 H19          3.9980     1.7100    -1.7860 hn         1 R34       0.347500
     51 H20          5.3420     3.3010    -3.1160 ho         1 R34       0.403000
@<TRIPOS>BOND
     1     1     2 ar  
     2     1     3 ar  
     3     1    27 1   
     4     2     7 ar  
     5     2    33 1   
     6     3     4 1   
     7     3     5 ar  
     8     4     8 1   
     9     4    28 1   
    10     5     6 ar  
    11     5    34 1   
    12     6     7 ar  
    13     6    35 1   
    14     7     9 1   
    15     8    36 1   
    16     8    37 1   
    17     8    38 1   
    18     9    10 ar  
    19     9    14 ar  
    20    10    11 ar  
    21    10    26 1   
    22    11    12 ar  
    23    11    39 1   
    24    12    13 ar  
    25    12    15 1   
    26    13    14 ar  
    27    13    16 1   
    28    14    40 1   
    29    15    17 1   
    30    15    41 1   
    31    16    17 2   
    32    17    18 1   
    33    18    19 1   
    34    19    20 ar  
    35    19    24 ar  
    36    20    21 ar  
    37    20    42 1   
    38    21    22 ar  
    39    21    43 1   
    40    22    23 ar  
    41    22    25 1   
    42    23    24 ar  
    43    23    29 1   
    44    24    44 1   
    45    25    45 1   
    46    25    46 1   
    47    25    47 1   
    48    27    28 2   
    49    27    48 1   
    50    28    49 1   
    51    29    30 1   
    52    29    31 2   
    53    30    32 1   
    54    30    50 1   
    55    32    51 1   
@<TRIPOS>SUBSTRUCTURE
     1 R34         1 TEMP              0 ****  ****    0 ROOT
