@<TRIPOS>MOLECULE
R35
   24    23     1     0     0
SMALL
No Charge or Current Charge


@<TRIPOS>ATOM
      1 C1           0.1750    -1.4140     0.0160 c          1 R35       0.742000
      2 O1           0.2430    -1.8350    -1.1310 o          1 R35      -0.762000
      3 C2           0.2320     0.1250     0.2790 c3         1 R35      -0.152700
      4 C3           1.6420     0.7760    -0.0400 c3         1 R35      -0.027000
      5 C4           1.8840     0.9530    -1.5670 c3         1 R35      -0.067100
      6 C5           1.7620     2.1750     0.6370 c3         1 R35      -0.067100
      7 C6           2.7800    -0.1130     0.5410 c3         1 R35      -0.067100
      8 C7          -1.0060     0.8550    -0.3540 c3         1 R35      -0.161400
      9 C8          -2.3250     0.3700     0.2940 c          1 R35       0.732000
     10 O2          -2.7080     0.9250     1.3140 o          1 R35      -0.768000
     11 O3          -2.9310    -0.5530    -0.2300 o          1 R35      -0.768000
     12 H1           0.1130     0.2330     1.3640 hc         1 R35       0.037700
     13 H2           1.1340     1.6120    -2.0180 hc         1 R35       0.011256
     14 H3           2.8680     1.4020    -1.7520 hc         1 R35       0.011256
     15 H4           1.8590    -0.0060    -2.0950 hc         1 R35       0.011256
     16 H5           1.5550     2.1140     1.7120 hc         1 R35       0.011256
     17 H6           2.7740     2.5810     0.5170 hc         1 R35       0.011256
     18 H7           1.0720     2.9030     0.1970 hc         1 R35       0.011256
     19 H8           2.8280    -1.0870     0.0410 hc         1 R35       0.011256
     20 H9           3.7580     0.3660     0.4110 hc         1 R35       0.011256
     21 H10          2.6330    -0.2860     1.6140 hc         1 R35       0.011256
     22 H11         -0.8800     1.9220    -0.1400 hc         1 R35      -0.005300
     23 H12         -0.9960     0.6250    -1.4270 hc         1 R35      -0.005300
     24 O4           0.0570    -2.1560     0.9820 o          1 R35      -0.762000
@<TRIPOS>BOND
     1     1     2 1   
     2     1     3 1   
     3     1    24 1   
     4     3     4 1   
     5     3     8 1   
     6     3    12 1   
     7     4     5 1   
     8     4     6 1   
     9     4     7 1   
    10     5    13 1   
    11     5    14 1   
    12     5    15 1   
    13     6    16 1   
    14     6    17 1   
    15     6    18 1   
    16     7    19 1   
    17     7    20 1   
    18     7    21 1   
    19     8     9 1   
    20     8    22 1   
    21     8    23 1   
    22     9    10 1   
    23     9    11 1   
@<TRIPOS>SUBSTRUCTURE
     1 R35         1 TEMP              0 ****  ****    0 ROOT
