@<TRIPOS>MOLECULE
R35
   24    23     1     0     0
SMALL
abcg2


@<TRIPOS>ATOM
      1 C1           0.1750    -1.3590     0.0180 c          1 R35       0.742000
      2 O1          -0.2830    -1.6530    -1.1080 o          1 R35      -0.762000
      3 C2           0.2560     0.1380     0.3760 c3         1 R35      -0.152700
      4 C3           1.6320     0.7530    -0.0110 c3         1 R35      -0.027000
      5 C4           1.9040     0.6770    -1.5160 c3         1 R35      -0.067100
      6 C5           1.6830     2.2230     0.4210 c3         1 R35      -0.067100
      7 C6           2.7660     0.0240     0.7180 c3         1 R35      -0.067100
      8 C7          -0.9280     0.8920    -0.2160 c3         1 R35      -0.161400
      9 C8          -2.3010     0.3100     0.1420 c          1 R35       0.732000
     10 O2          -2.4000    -0.3380     1.2050 o          1 R35      -0.768000
     11 O3          -3.2420     0.5710    -0.6410 o          1 R35      -0.768000
     12 H1           0.1930     0.2160     1.4670 hc         1 R35       0.037700
     13 H2           1.1460     1.2060    -2.0970 hc         1 R35       0.011256
     14 H3           2.8690     1.1340    -1.7490 hc         1 R35       0.011256
     15 H4           1.9300    -0.3530    -1.8700 hc         1 R35       0.011256
     16 H5           1.4330     2.3330     1.4800 hc         1 R35       0.011256
     17 H6           2.6860     2.6310     0.2730 hc         1 R35       0.011256
     18 H7           0.9940     2.8480    -0.1480 hc         1 R35       0.011256
     19 H8           2.8500    -1.0180     0.4130 hc         1 R35       0.011256
     20 H9           3.7220     0.5100     0.5090 hc         1 R35       0.011256
     21 H10          2.6170     0.0390     1.8010 hc         1 R35       0.011256
     22 H11         -0.9230     1.9300     0.1390 hc         1 R35      -0.005300
     23 H12         -0.8460     0.9540    -1.3030 hc         1 R35      -0.005300
     24 O4           0.5910    -2.1820     0.8620 o          1 R35      -0.762000
@<TRIPOS>BOND
     1     1     2 1   
     2     1     3 1   
     3     1    24 1   
     4     3     4 1   
     5     3     8 1   
     6     3    12 1   
     7     4     5 1   
     8     4     6 1   
     9     4     7 1   
    10     5    13 1   
    11     5    14 1   
    12     5    15 1   
    13     6    16 1   
    14     6    17 1   
    15     6    18 1   
    16     7    19 1   
    17     7    20 1   
    18     7    21 1   
    19     8     9 1   
    20     8    22 1   
    21     8    23 1   
    22     9    10 1   
    23     9    11 1   
@<TRIPOS>SUBSTRUCTURE
     1 R35         1 TEMP              0 ****  ****    0 ROOT
