@<TRIPOS>MOLECULE
R36
   80    82     1     0     0
SMALL
bcc


@<TRIPOS>ATOM
      1 C           -6.0430     1.1280     0.1120 ca         1 R36      -0.079300
      2 C8          -5.0430     2.1020     0.0680 ca         1 R36       0.088100
      3 C9          -5.2760     3.3850    -0.4260 ca         1 R36      -0.079300
      4 C10         -6.5530     3.6870    -0.8910 ca         1 R36      -0.128000
      5 C13         -7.5620     2.7350    -0.8690 ca         1 R36      -0.125000
      6 C14         -7.3060     1.4680    -0.3660 ca         1 R36      -0.128000
      7 C3          -4.1840     4.4150    -0.4390 c3         1 R36      -0.045800
      8 C2          -5.7730    -0.2370     0.6760 c3         1 R36      -0.045800
      9 C16          5.3550     0.3630    -0.8560 ca         1 R36      -0.107600
     10 C26          5.8410     1.6390    -0.5810 ca         1 R36      -0.160000
     11 C27          6.5890     2.2960    -1.5490 ca         1 R36      -0.097000
     12 C28          6.8400     1.7100    -2.7770 ca         1 R36      -0.184000
     13 C29          6.3510     0.4290    -3.0670 ca         1 R36       0.147600
     14 N1           6.5410    -0.1360    -4.3070 nv         1 R36      -0.827200
     15 C30          5.6190    -0.2380    -2.0800 ca         1 R36      -0.145000
     16 O1          -3.7990     1.8060     0.5580 os         1 R36      -0.312900
     17 C34         -2.9560     1.1040    -0.3210 c3         1 R36       0.053400
     18 C25         -2.0980     0.1230     0.4620 c          1 R36       0.663100
     19 O26         -2.3600    -0.2120     1.6010 o          1 R36      -0.570100
     20 N16         -1.0600    -0.3510    -0.2540 ns         1 R36      -0.579900
     21 C15          1.1840    -1.2320     0.2560 c3         1 R36       0.142100
     22 O14          1.7290    -0.7320    -0.9460 oh         1 R36      -0.588800
     23 C12          1.4290    -0.3200     1.4550 c3         1 R36      -0.131400
     24 C4           2.8780    -0.2500     1.9400 c3         1 R36       0.111700
     25 C5           2.9790     0.5660     3.2290 c3         1 R36      -0.084400
     26 C6           4.3810     0.6760     3.8300 c3         1 R36      -0.055700
     27 C11          4.3430     1.5710     5.0650 c3         1 R36      -0.090600
     28 C7           4.9630    -0.6910     4.1760 c3         1 R36      -0.090600
     29 N3           3.7630     0.3070     0.9360 ns         1 R36      -0.564900
     30 C1           4.5720    -0.4210     0.1510 c          1 R36       0.688700
     31 O2           4.6890    -1.6370     0.2340 o          1 R36      -0.604100
     32 C17         -0.3110    -1.5420     0.0930 c3         1 R36       0.079700
     33 C18         -0.5630    -2.6400    -0.9490 c3         1 R36      -0.049100
     34 C19         -2.0280    -2.9430    -1.0850 ca         1 R36      -0.081300
     35 C20         -2.7850    -2.3760    -2.1080 ca         1 R36      -0.125500
     36 C21         -4.1510    -2.6120    -2.2000 ca         1 R36      -0.125500
     37 C22         -4.7810    -3.4230    -1.2670 ca         1 R36      -0.129000
     38 C23         -4.0370    -3.9960    -0.2430 ca         1 R36      -0.125500
     39 C24         -2.6730    -3.7550    -0.1550 ca         1 R36      -0.125500
     40 H101        -6.7550     4.6780    -1.2780 ha         1 R36       0.131000
     41 H131        -8.5500     2.9840    -1.2340 ha         1 R36       0.132000
     42 H141        -8.0980     0.7290    -0.3390 ha         1 R36       0.131000
     43 H31         -3.8340     4.6440     0.5680 hc         1 R36       0.046867
     44 H32         -3.3140     4.0860    -1.0110 hc         1 R36       0.046867
     45 H33         -4.5360     5.3430    -0.8860 hc         1 R36       0.046867
     46 H21         -5.2920    -0.1830     1.6510 hc         1 R36       0.046867
     47 H22         -6.7030    -0.7930     0.7870 hc         1 R36       0.046867
     48 H23         -5.1190    -0.8320     0.0350 hc         1 R36       0.046867
     49 H261         5.6790     2.1070     0.3820 ha         1 R36       0.132000
     50 H271         6.9890     3.2800    -1.3410 ha         1 R36       0.130000
     51 H281         7.4230     2.2420    -3.5200 ha         1 R36       0.130000
     52 H11          7.3200     0.2180    -4.8390 hn         1 R36       0.396300
     53 H12          6.4800    -1.1410    -4.3510 hn         1 R36       0.396300
     54 H301         5.2420    -1.2340    -2.2780 ha         1 R36       0.153000
     55 H341        -2.3240     1.7930    -0.8930 h1         1 R36       0.047700
     56 H342        -3.5290     0.5210    -1.0550 h1         1 R36       0.047700
     57 H161        -0.9560    -0.0130    -1.2000 hn         1 R36       0.305500
     58 H151         1.6850    -2.1890     0.4390 h1         1 R36       0.086700
     59 H14O         1.5580     0.2140    -0.9940 ho         1 R36       0.397000
     60 H121         0.8240    -0.6870     2.2890 hc         1 R36       0.058700
     61 H122         1.0600     0.6900     1.2380 hc         1 R36       0.058700
     62 H41          3.2190    -1.2680     2.1330 h1         1 R36       0.084700
     63 H51          2.3110     0.1150     3.9700 hc         1 R36       0.044200
     64 H52          2.5870     1.5730     3.0400 hc         1 R36       0.044200
     65 H61          5.0370     1.1510     3.0930 hc         1 R36       0.047700
     66 H111         5.3400     1.7060     5.4870 hc         1 R36       0.034367
     67 H112         3.9460     2.5600     4.8300 hc         1 R36       0.034367
     68 H113         3.7110     1.1370     5.8450 hc         1 R36       0.034367
     69 H71          5.1230    -1.3100     3.2920 hc         1 R36       0.034367
     70 H72          5.9290    -0.5890     4.6740 hc         1 R36       0.034367
     71 H73          4.2980    -1.2380     4.8490 hc         1 R36       0.034367
     72 HN31         3.6400     1.2830     0.7180 hn         1 R36       0.309500
     73 H171        -0.6840    -1.8910     1.0580 h1         1 R36       0.085700
     74 H181        -0.1490    -2.3320    -1.9130 hc         1 R36       0.063200
     75 H182        -0.0180    -3.5350    -0.6400 hc         1 R36       0.063200
     76 H201        -2.2980    -1.7490    -2.8460 ha         1 R36       0.127500
     77 H211        -4.7210    -2.1620    -3.0030 ha         1 R36       0.131500
     78 H221        -5.8450    -3.6090    -1.3370 ha         1 R36       0.131000
     79 H231        -4.5210    -4.6310     0.4880 ha         1 R36       0.131500
     80 H241        -2.1000    -4.2040     0.6480 ha         1 R36       0.127500
@<TRIPOS>BOND
     1     1     2 ar  
     2     1     6 ar  
     3     1     8 1   
     4     2     3 ar  
     5     2    16 1   
     6     3     4 ar  
     7     3     7 1   
     8     4     5 ar  
     9     4    40 1   
    10     5     6 ar  
    11     5    41 1   
    12     6    42 1   
    13     7    43 1   
    14     7    44 1   
    15     7    45 1   
    16     8    46 1   
    17     8    47 1   
    18     8    48 1   
    19     9    10 ar  
    20     9    15 ar  
    21     9    30 1   
    22    10    11 ar  
    23    10    49 1   
    24    11    12 ar  
    25    11    50 1   
    26    12    13 ar  
    27    12    51 1   
    28    13    14 1   
    29    13    15 ar  
    30    14    52 1   
    31    14    53 1   
    32    15    54 1   
    33    16    17 1   
    34    17    18 1   
    35    17    55 1   
    36    17    56 1   
    37    18    19 2   
    38    18    20 1   
    39    20    32 1   
    40    20    57 1   
    41    21    22 1   
    42    21    23 1   
    43    21    32 1   
    44    21    58 1   
    45    22    59 1   
    46    23    24 1   
    47    23    60 1   
    48    23    61 1   
    49    24    25 1   
    50    24    29 1   
    51    24    62 1   
    52    25    26 1   
    53    25    63 1   
    54    25    64 1   
    55    26    27 1   
    56    26    28 1   
    57    26    65 1   
    58    27    66 1   
    59    27    67 1   
    60    27    68 1   
    61    28    69 1   
    62    28    70 1   
    63    28    71 1   
    64    29    30 1   
    65    29    72 1   
    66    30    31 2   
    67    32    33 1   
    68    32    73 1   
    69    33    34 1   
    70    33    74 1   
    71    33    75 1   
    72    34    35 ar  
    73    34    39 ar  
    74    35    36 ar  
    75    35    76 1   
    76    36    37 ar  
    77    36    77 1   
    78    37    38 ar  
    79    37    78 1   
    80    38    39 ar  
    81    38    79 1   
    82    39    80 1   
@<TRIPOS>SUBSTRUCTURE
     1 R36         1 TEMP              0 ****  ****    0 ROOT
