@<TRIPOS>MOLECULE
R36
   80    82     1     0     0
SMALL
No Charge or Current Charge


@<TRIPOS>ATOM
      1 C           -6.3410     1.3170    -0.4720 ca         1 R36      -0.079300
      2 C8          -5.3710     1.9960     0.3060 ca         1 R36       0.088100
      3 C9          -5.5010     3.3780     0.5700 ca         1 R36      -0.079300
      4 C10         -6.5960     4.0840     0.0330 ca         1 R36      -0.110000
      5 C13         -7.5520     3.4180    -0.7500 ca         1 R36      -0.107000
      6 C14         -7.4270     2.0420    -1.0000 ca         1 R36      -0.110000
      7 C3          -4.4670     4.1110     1.4180 c3         1 R36      -0.045800
      8 C2          -6.2450    -0.1820    -0.7440 c3         1 R36      -0.045800
      9 C16          5.5090     0.1960    -1.0230 ca         1 R36      -0.107600
     10 C26          5.3740     1.5700    -1.3450 ca         1 R36      -0.142000
     11 C27          6.1540     2.1460    -2.3620 ca         1 R36      -0.079000
     12 C28          7.0790     1.3640    -3.0710 ca         1 R36      -0.166000
     13 C29          7.2270     0.0050    -2.7660 ca         1 R36       0.286000
     14 N1           8.1320    -0.7540    -3.4620 nv         1 R36      -1.076000
     15 C30          6.4490    -0.5730    -1.7510 ca         1 R36      -0.127000
     16 O1          -4.2980     1.3110     0.8270 os         1 R36      -0.336100
     17 C34         -3.1800     0.9960    -0.0330 c3         1 R36       0.076600
     18 C25         -2.1880     0.0100     0.6250 c          1 R36       0.596100
     19 O26         -2.2450    -0.3340     1.8000 o          1 R36      -0.570100
     20 N16         -1.2330    -0.4880    -0.2400 ns         1 R36      -0.512900
     21 C15          1.1600    -1.2000     0.1580 c3         1 R36       0.165300
     22 O14          1.5760    -0.6140    -1.0870 oh         1 R36      -0.651000
     23 C12          1.4170    -0.1970     1.3170 c3         1 R36      -0.131400
     24 C4           2.8880    -0.0970     1.8040 c3         1 R36       0.111700
     25 C5           3.0210     0.8380     3.0350 c3         1 R36      -0.084400
     26 C6           4.4520     0.9790     3.6300 c3         1 R36      -0.055700
     27 C11          4.4740     2.0250     4.7670 c3         1 R36      -0.090600
     28 C7           5.0340    -0.3700     4.1160 c3         1 R36      -0.090600
     29 N3           3.7850     0.3400     0.7310 ns         1 R36      -0.497900
     30 C1           4.6880    -0.4670     0.0700 c          1 R36       0.621700
     31 O2           4.8220    -1.6500     0.3590 o          1 R36      -0.604100
     32 C17         -0.3390    -1.6220     0.0610 c3         1 R36       0.079700
     33 C18         -0.5980    -2.7730    -0.9440 c3         1 R36      -0.049100
     34 C19         -2.0810    -3.1230    -1.0560 ca         1 R36      -0.081300
     35 C20         -2.8110    -2.7770    -2.2110 ca         1 R36      -0.107500
     36 C21         -4.1840    -3.0640    -2.2950 ca         1 R36      -0.107500
     37 C22         -4.8380    -3.6970    -1.2250 ca         1 R36      -0.111000
     38 C23         -4.1150    -4.0460    -0.0710 ca         1 R36      -0.107500
     39 C24         -2.7420    -3.7600     0.0130 ca         1 R36      -0.107500
     40 H101        -6.7070     5.1490     0.2220 ha         1 R36       0.113000
     41 H131        -8.3950     3.9700    -1.1620 ha         1 R36       0.114000
     42 H141        -8.1780     1.5380    -1.6030 ha         1 R36       0.113000
     43 H31         -4.3410     3.6240     2.3920 hc         1 R36       0.046867
     44 H32         -3.4900     4.1240     0.9200 hc         1 R36       0.046867
     45 H33         -4.7560     5.1520     1.6060 hc         1 R36       0.046867
     46 H21         -5.8040    -0.7230     0.1010 hc         1 R36       0.046867
     47 H22         -7.2340    -0.6200    -0.9240 hc         1 R36       0.046867
     48 H23         -5.6310    -0.3820    -1.6300 hc         1 R36       0.046867
     49 H261         4.6690     2.2070    -0.8180 ha         1 R36       0.114000
     50 H271         6.0410     3.2020    -2.6000 ha         1 R36       0.112000
     51 H281         7.6790     1.8180    -3.8550 ha         1 R36       0.112000
     52 H11          8.5950    -0.3670    -4.2830 hn         1 R36       0.451500
     53 H12          8.1490    -1.7660    -3.3450 hn         1 R36       0.451500
     54 H301         6.5760    -1.6280    -1.5250 ha         1 R36       0.135000
     55 H341        -2.6300     1.9070    -0.3000 h1         1 R36       0.047700
     56 H342        -3.5270     0.5330    -0.9650 h1         1 R36       0.047700
     57 H161        -1.2840    -0.1690    -1.2000 hn         1 R36       0.305500
     58 H151         1.7450    -2.1100     0.3610 h1         1 R36       0.086700
     59 H14O         1.1110     0.2450    -1.1620 ho         1 R36       0.436000
     60 H121         0.8100    -0.5080     2.1760 hc         1 R36       0.058700
     61 H122         1.0530     0.7990     1.0350 hc         1 R36       0.058700
     62 H41          3.1850    -1.1040     2.1240 h1         1 R36       0.084700
     63 H51          2.3470     0.4800     3.8230 hc         1 R36       0.044200
     64 H52          2.6590     1.8350     2.7520 hc         1 R36       0.044200
     65 H61          5.1150     1.3570     2.8420 hc         1 R36       0.047700
     66 H111         5.4930     2.1630     5.1490 hc         1 R36       0.034367
     67 H112         4.1150     2.9970     4.4080 hc         1 R36       0.034367
     68 H113         3.8350     1.7100     5.6010 hc         1 R36       0.034367
     69 H71          5.1520    -1.0740     3.2850 hc         1 R36       0.034367
     70 H72          6.0240    -0.2240     4.5660 hc         1 R36       0.034367
     71 H73          4.3810    -0.8290     4.8690 hc         1 R36       0.034367
     72 HN31         3.7310     1.3010     0.4260 hn         1 R36       0.309500
     73 H171        -0.6130    -2.0190     1.0480 h1         1 R36       0.085700
     74 H181        -0.2020    -2.4940    -1.9280 hc         1 R36       0.063200
     75 H182        -0.0290    -3.6570    -0.6290 hc         1 R36       0.063200
     76 H201        -2.3170    -2.2790    -3.0420 ha         1 R36       0.109500
     77 H211        -4.7430    -2.7910    -3.1880 ha         1 R36       0.113500
     78 H221        -5.9010    -3.9160    -1.2890 ha         1 R36       0.113000
     79 H231        -4.6200    -4.5360     0.7590 ha         1 R36       0.113500
     80 H241        -2.1920    -4.0270     0.9130 ha         1 R36       0.109500
@<TRIPOS>BOND
     1     1     2 ar  
     2     1     6 ar  
     3     1     8 1   
     4     2     3 ar  
     5     2    16 1   
     6     3     4 ar  
     7     3     7 1   
     8     4     5 ar  
     9     4    40 1   
    10     5     6 ar  
    11     5    41 1   
    12     6    42 1   
    13     7    43 1   
    14     7    44 1   
    15     7    45 1   
    16     8    46 1   
    17     8    47 1   
    18     8    48 1   
    19     9    10 ar  
    20     9    15 ar  
    21     9    30 1   
    22    10    11 ar  
    23    10    49 1   
    24    11    12 ar  
    25    11    50 1   
    26    12    13 ar  
    27    12    51 1   
    28    13    14 1   
    29    13    15 ar  
    30    14    52 1   
    31    14    53 1   
    32    15    54 1   
    33    16    17 1   
    34    17    18 1   
    35    17    55 1   
    36    17    56 1   
    37    18    19 2   
    38    18    20 1   
    39    20    32 1   
    40    20    57 1   
    41    21    22 1   
    42    21    23 1   
    43    21    32 1   
    44    21    58 1   
    45    22    59 1   
    46    23    24 1   
    47    23    60 1   
    48    23    61 1   
    49    24    25 1   
    50    24    29 1   
    51    24    62 1   
    52    25    26 1   
    53    25    63 1   
    54    25    64 1   
    55    26    27 1   
    56    26    28 1   
    57    26    65 1   
    58    27    66 1   
    59    27    67 1   
    60    27    68 1   
    61    28    69 1   
    62    28    70 1   
    63    28    71 1   
    64    29    30 1   
    65    29    72 1   
    66    30    31 2   
    67    32    33 1   
    68    32    73 1   
    69    33    34 1   
    70    33    74 1   
    71    33    75 1   
    72    34    35 ar  
    73    34    39 ar  
    74    35    36 ar  
    75    35    76 1   
    76    36    37 ar  
    77    36    77 1   
    78    37    38 ar  
    79    37    78 1   
    80    38    39 ar  
    81    38    79 1   
    82    39    80 1   
@<TRIPOS>SUBSTRUCTURE
     1 R36         1 TEMP              0 ****  ****    0 ROOT
