@<TRIPOS>MOLECULE
R37
   80    82     1     0     0
SMALL
abcg2


@<TRIPOS>ATOM
      1 C            6.2130     1.2380    -0.4250 ca         1 R37      -0.079300
      2 C8           5.1760     1.3790    -1.3500 ca         1 R37       0.083100
      3 C9           5.1740     2.3790    -2.3220 ca         1 R37      -0.079300
      4 C10          6.2430     3.2710    -2.3440 ca         1 R37      -0.109000
      5 C13          7.2770     3.1650    -1.4270 ca         1 R37      -0.106000
      6 C14          7.2630     2.1510    -0.4810 ca         1 R37      -0.109000
      7 C3           4.0720     2.4610    -3.3380 c3         1 R37      -0.043300
      8 C2           6.2090     0.1180     0.5740 c3         1 R37      -0.043300
      9 C16         -5.9120     0.2510     0.6230 ca         1 R37      -0.206600
     10 C26         -7.3050     0.2000     0.5600 ca         1 R37      -0.027000
     11 C27         -8.0910     0.9400     1.4200 ca         1 R37      -0.199500
     12 C28         -7.5080     1.7500     2.4060 ca         1 R37       0.324000
     13 C29         -6.1090     1.7820     2.4880 ca         1 R37      -0.199500
     14 N1          -8.2820     2.4450     3.2950 nv         1 R37      -1.084000
     15 C30         -5.3320     1.0500     1.6110 ca         1 R37      -0.027000
     16 O1           4.1450     0.4760    -1.3290 os         1 R37      -0.328100
     17 C34          3.0810     0.8450    -0.4880 c3         1 R37       0.076600
     18 C25          2.0990    -0.3120    -0.4150 c          1 R37       0.601100
     19 O26          2.2100    -1.3060    -1.1070 o          1 R37      -0.561100
     20 N16          1.1070    -0.1010     0.4710 ns         1 R37      -0.513900
     21 C15         -1.2810    -0.7060     0.5670 c3         1 R37       0.162300
     22 O14         -1.6670     0.4320     1.3160 oh         1 R37      -0.663000
     23 C12         -1.4960    -0.5160    -0.9360 c3         1 R37      -0.125400
     24 C4          -2.9150    -0.8240    -1.4160 c3         1 R37       0.120700
     25 C5          -3.1050    -0.4930    -2.9000 c3         1 R37      -0.092400
     26 C6          -2.1720    -1.2160    -3.8730 c3         1 R37      -0.058700
     27 C11         -2.2760    -2.7340    -3.7560 c3         1 R37      -0.088600
     28 C7          -2.4770    -0.7690    -5.3000 c3         1 R37      -0.088600
     29 N3          -3.8840    -0.1100    -0.6070 ns         1 R37      -0.505900
     30 C1          -5.1130    -0.5750    -0.3200 c          1 R37       0.622700
     31 O2          -5.5590    -1.6140    -0.7990 o          1 R37      -0.615100
     32 C17          0.1610    -1.1170     0.8860 c3         1 R37       0.077700
     33 C18          0.3560    -1.4460     2.3720 c3         1 R37      -0.047100
     34 C19          1.7670    -1.8700     2.6640 ca         1 R37      -0.083300
     35 C20          2.6870    -0.9760     3.2050 ca         1 R37      -0.105000
     36 C21          4.0060    -1.3540     3.4250 ca         1 R37      -0.106500
     37 C22          4.4240    -2.6380     3.1050 ca         1 R37      -0.107000
     38 C23          3.5140    -3.5410     2.5690 ca         1 R37      -0.106500
     39 C24          2.1980    -3.1580     2.3510 ca         1 R37      -0.105000
     40 H101         6.2630     4.0560    -3.0910 ha         1 R37       0.113500
     41 H131         8.1020     3.8660    -1.4560 ha         1 R37       0.115000
     42 H141         8.0790     2.0610     0.2260 ha         1 R37       0.113500
     43 H31          4.0200     1.5530    -3.9420 hc         1 R37       0.045700
     44 H32          3.0910     2.5960    -2.8810 hc         1 R37       0.045700
     45 H33          4.2330     3.2990    -4.0150 hc         1 R37       0.045700
     46 H21          6.1610    -0.8560     0.0860 hc         1 R37       0.045700
     47 H22          7.1140     0.1420     1.1790 hc         1 R37       0.045700
     48 H23          5.3610     0.1670     1.2580 hc         1 R37       0.045700
     49 H261        -7.7850    -0.4200    -0.1870 ha         1 R37       0.126000
     50 H271        -9.1700     0.8940     1.3340 ha         1 R37       0.114000
     51 H291        -5.6300     2.3790     3.2550 ha         1 R37       0.114000
     52 H11         -9.2360     2.6220     3.0290 hn         1 R37       0.458000
     53 H12         -7.8530     3.2290     3.7590 hn         1 R37       0.458000
     54 H301        -4.2550     1.0820     1.7310 ha         1 R37       0.126000
     55 H341         2.5600     1.7360    -0.8610 h1         1 R37       0.041200
     56 H342         3.4300     1.0860     0.5230 h1         1 R37       0.041200
     57 H161         1.1730     0.7230     1.0490 hn         1 R37       0.303500
     58 H151        -1.9230    -1.5210     0.9200 h1         1 R37       0.087700
     59 H14O        -1.2560     1.2120     0.9280 ho         1 R37       0.435000
     60 H121        -0.8120    -1.1710    -1.4790 hc         1 R37       0.060200
     61 H122        -1.2140     0.5030    -1.2260 hc         1 R37       0.060200
     62 H41         -3.1020    -1.8900    -1.2610 h1         1 R37       0.076700
     63 H51         -2.9870     0.5890    -3.0270 hc         1 R37       0.048200
     64 H52         -4.1400    -0.7280    -3.1700 hc         1 R37       0.048200
     65 H61         -1.1390    -0.9270    -3.6520 hc         1 R37       0.044700
     66 H111        -3.3020    -3.0700    -3.9320 hc         1 R37       0.034033
     67 H112        -1.6370    -3.2250    -4.4920 hc         1 R37       0.034033
     68 H113        -1.9740    -3.1000    -2.7730 hc         1 R37       0.034033
     69 H71         -3.4980    -1.0360    -5.5830 hc         1 R37       0.034033
     70 H72         -2.3750     0.3120    -5.4090 hc         1 R37       0.034033
     71 H73         -1.8000    -1.2400    -6.0160 hc         1 R37       0.034033
     72 HN31        -3.6310     0.8090    -0.2850 hn         1 R37       0.314500
     73 H171         0.3800    -2.0140     0.3040 h1         1 R37       0.090700
     74 H181         0.0890    -0.5760     2.9770 hc         1 R37       0.061200
     75 H182        -0.3450    -2.2410     2.6380 hc         1 R37       0.061200
     76 H201         2.3700     0.0280     3.4640 ha         1 R37       0.108500
     77 H211         4.7050    -0.6450     3.8490 ha         1 R37       0.113000
     78 H221         5.4510    -2.9350     3.2760 ha         1 R37       0.113000
     79 H231         3.8280    -4.5470     2.3210 ha         1 R37       0.113000
     80 H241         1.4950    -3.8690     1.9330 ha         1 R37       0.108500
@<TRIPOS>BOND
     1     1     2 ar  
     2     1     6 ar  
     3     1     8 1   
     4     2     3 ar  
     5     2    16 1   
     6     3     4 ar  
     7     3     7 1   
     8     4     5 ar  
     9     4    40 1   
    10     5     6 ar  
    11     5    41 1   
    12     6    42 1   
    13     7    43 1   
    14     7    44 1   
    15     7    45 1   
    16     8    46 1   
    17     8    47 1   
    18     8    48 1   
    19     9    10 ar  
    20     9    15 ar  
    21     9    30 1   
    22    10    11 ar  
    23    10    49 1   
    24    11    12 ar  
    25    11    50 1   
    26    12    13 ar  
    27    12    14 1   
    28    13    15 ar  
    29    13    51 1   
    30    14    52 1   
    31    14    53 1   
    32    15    54 1   
    33    16    17 1   
    34    17    18 1   
    35    17    55 1   
    36    17    56 1   
    37    18    19 2   
    38    18    20 1   
    39    20    32 1   
    40    20    57 1   
    41    21    22 1   
    42    21    23 1   
    43    21    32 1   
    44    21    58 1   
    45    22    59 1   
    46    23    24 1   
    47    23    60 1   
    48    23    61 1   
    49    24    25 1   
    50    24    29 1   
    51    24    62 1   
    52    25    26 1   
    53    25    63 1   
    54    25    64 1   
    55    26    27 1   
    56    26    28 1   
    57    26    65 1   
    58    27    66 1   
    59    27    67 1   
    60    27    68 1   
    61    28    69 1   
    62    28    70 1   
    63    28    71 1   
    64    29    30 1   
    65    29    72 1   
    66    30    31 2   
    67    32    33 1   
    68    32    73 1   
    69    33    34 1   
    70    33    74 1   
    71    33    75 1   
    72    34    35 ar  
    73    34    39 ar  
    74    35    36 ar  
    75    35    76 1   
    76    36    37 ar  
    77    36    77 1   
    78    37    38 ar  
    79    37    78 1   
    80    38    39 ar  
    81    38    79 1   
    82    39    80 1   
@<TRIPOS>SUBSTRUCTURE
     1 R37         1 TEMP              0 ****  ****    0 ROOT
