@<TRIPOS>MOLECULE
R37
   80    82     1     0     0
SMALL
No Charge or Current Charge


@<TRIPOS>ATOM
      1 C            6.1950     1.2580    -0.3690 ca         1 R37      -0.079300
      2 C8           5.2120     1.4790    -1.3650 ca         1 R37       0.083100
      3 C9           5.3700     2.5130    -2.3140 ca         1 R37      -0.079300
      4 C10          6.5070     3.3410    -2.2500 ca         1 R37      -0.109000
      5 C13          7.4780     3.1360    -1.2560 ca         1 R37      -0.106000
      6 C14          7.3230     2.0990    -0.3220 ca         1 R37      -0.109000
      7 C3           4.3210     2.7450    -3.3960 c3         1 R37      -0.043300
      8 C2           6.0690     0.1260     0.6480 c3         1 R37      -0.043300
      9 C16         -6.0150     0.3790     0.5510 ca         1 R37      -0.206600
     10 C26         -7.4050     0.1990     0.7350 ca         1 R37      -0.027000
     11 C27         -8.1090     0.9760     1.6710 ca         1 R37      -0.199500
     12 C28         -7.4410     1.9390     2.4330 ca         1 R37       0.324000
     13 C29         -6.0660     2.1290     2.2630 ca         1 R37      -0.199500
     14 N1          -8.1300     2.6920     3.3400 nv         1 R37      -1.084000
     15 C30         -5.3510     1.3580     1.3300 ca         1 R37      -0.027000
     16 O1           4.0970     0.6750    -1.4270 os         1 R37      -0.328100
     17 C34          3.0160     0.8990    -0.4960 c3         1 R37       0.076600
     18 C25          1.9720    -0.2410    -0.5200 c          1 R37       0.601100
     19 O26          1.9460    -1.1250    -1.3680 o          1 R37      -0.561100
     20 N16          1.0800    -0.2080     0.5340 ns         1 R37      -0.513900
     21 C15         -1.3200    -1.0140     0.5470 c3         1 R37       0.162300
     22 O14         -1.7410     0.1860     1.2210 oh         1 R37      -0.663000
     23 C12         -1.5540    -0.8400    -0.9780 c3         1 R37      -0.125400
     24 C4          -3.0240    -1.0080    -1.4560 c3         1 R37       0.120700
     25 C5          -3.2210    -0.6080    -2.9480 c3         1 R37      -0.092400
     26 C6          -2.3700    -1.3880    -3.9910 c3         1 R37      -0.058700
     27 C11         -2.6140    -2.9160    -3.9420 c3         1 R37      -0.088600
     28 C7          -2.6150    -0.8410    -5.4160 c3         1 R37      -0.088600
     29 N3          -3.9330    -0.2540    -0.5940 ns         1 R37      -0.505900
     30 C1          -5.2860    -0.4740    -0.4650 c          1 R37       0.622700
     31 O2          -5.8630    -1.3220    -1.1330 o          1 R37      -0.615100
     32 C17          0.1710    -1.3130     0.8950 c3         1 R37       0.077700
     33 C18          0.3960    -1.7090     2.3760 c3         1 R37      -0.047100
     34 C19          1.8740    -1.9310     2.6970 ca         1 R37      -0.083300
     35 C20          2.5760    -1.0090     3.5000 ca         1 R37      -0.105000
     36 C21          3.9460    -1.1920     3.7570 ca         1 R37      -0.106500
     37 C22          4.6230    -2.2970     3.2130 ca         1 R37      -0.107000
     38 C23          3.9280    -3.2200     2.4150 ca         1 R37      -0.106500
     39 C24          2.5580    -3.0380     2.1570 ca         1 R37      -0.105000
     40 H101         6.6410     4.1450    -2.9700 ha         1 R37       0.113500
     41 H131         8.3540     3.7800    -1.2130 ha         1 R37       0.115000
     42 H141         8.0860     1.9480     0.4390 ha         1 R37       0.113500
     43 H31          4.1440     1.8310    -3.9750 hc         1 R37       0.045700
     44 H32          3.3660     3.0540    -2.9560 hc         1 R37       0.045700
     45 H33          4.6280     3.5260    -4.1020 hc         1 R37       0.045700
     46 H21          5.5720    -0.7530     0.2210 hc         1 R37       0.045700
     47 H22          7.0530    -0.2030     1.0030 hc         1 R37       0.045700
     48 H23          5.4940     0.4470     1.5240 hc         1 R37       0.045700
     49 H261        -7.9460    -0.5450     0.1530 ha         1 R37       0.126000
     50 H271        -9.1770     0.8220     1.7990 ha         1 R37       0.114000
     51 H291        -5.5420     2.8760     2.8540 ha         1 R37       0.114000
     52 H11         -9.1480     2.6670     3.3440 hn         1 R37       0.458000
     53 H12         -7.6810     3.4980     3.7710 hn         1 R37       0.458000
     54 H301        -4.2830     1.5370     1.2280 ha         1 R37       0.126000
     55 H341         2.4980     1.8400    -0.7240 h1         1 R37       0.041200
     56 H342         3.3970     0.9700     0.5290 h1         1 R37       0.041200
     57 H161         1.2180     0.5320     1.2120 hn         1 R37       0.303500
     58 H151        -1.9180    -1.8720     0.8860 h1         1 R37       0.087700
     59 H14O        -1.0440     0.8550     1.0550 ho         1 R37       0.435000
     60 H121        -0.9450    -1.5860    -1.5020 hc         1 R37       0.060200
     61 H122        -1.1760     0.1400    -1.2940 hc         1 R37       0.060200
     62 H41         -3.2900    -2.0680    -1.3440 h1         1 R37       0.076700
     63 H51         -3.0040     0.4630    -3.0470 hc         1 R37       0.048200
     64 H52         -4.2780    -0.7280    -3.2110 hc         1 R37       0.048200
     65 H61         -1.3100    -1.2150    -3.7710 hc         1 R37       0.044700
     66 H111        -3.6740    -3.1470    -4.1000 hc         1 R37       0.034033
     67 H112        -2.0330    -3.4250    -4.7210 hc         1 R37       0.034033
     68 H113        -2.3080    -3.3360    -2.9770 hc         1 R37       0.034033
     69 H71         -3.6590    -0.9870    -5.7180 hc         1 R37       0.034033
     70 H72         -2.3900     0.2310    -5.4640 hc         1 R37       0.034033
     71 H73         -1.9730    -1.3520    -6.1440 hc         1 R37       0.034033
     72 HN31        -3.5120     0.3930     0.0610 hn         1 R37       0.314500
     73 H171         0.4580    -2.1940     0.3040 h1         1 R37       0.090700
     74 H181        -0.0180    -0.9310     3.0290 hc         1 R37       0.061200
     75 H182        -0.1730    -2.6210     2.5940 hc         1 R37       0.061200
     76 H201         2.0650    -0.1460     3.9190 ha         1 R37       0.108500
     77 H211         4.4830    -0.4760     4.3740 ha         1 R37       0.113000
     78 H221         5.6840    -2.4370     3.4110 ha         1 R37       0.113000
     79 H231         4.4510    -4.0750     1.9920 ha         1 R37       0.113000
     80 H241         2.0300    -3.7540     1.5320 ha         1 R37       0.108500
@<TRIPOS>BOND
     1     1     2 ar  
     2     1     6 ar  
     3     1     8 1   
     4     2     3 ar  
     5     2    16 1   
     6     3     4 ar  
     7     3     7 1   
     8     4     5 ar  
     9     4    40 1   
    10     5     6 ar  
    11     5    41 1   
    12     6    42 1   
    13     7    43 1   
    14     7    44 1   
    15     7    45 1   
    16     8    46 1   
    17     8    47 1   
    18     8    48 1   
    19     9    10 ar  
    20     9    15 ar  
    21     9    30 1   
    22    10    11 ar  
    23    10    49 1   
    24    11    12 ar  
    25    11    50 1   
    26    12    13 ar  
    27    12    14 1   
    28    13    15 ar  
    29    13    51 1   
    30    14    52 1   
    31    14    53 1   
    32    15    54 1   
    33    16    17 1   
    34    17    18 1   
    35    17    55 1   
    36    17    56 1   
    37    18    19 2   
    38    18    20 1   
    39    20    32 1   
    40    20    57 1   
    41    21    22 1   
    42    21    23 1   
    43    21    32 1   
    44    21    58 1   
    45    22    59 1   
    46    23    24 1   
    47    23    60 1   
    48    23    61 1   
    49    24    25 1   
    50    24    29 1   
    51    24    62 1   
    52    25    26 1   
    53    25    63 1   
    54    25    64 1   
    55    26    27 1   
    56    26    28 1   
    57    26    65 1   
    58    27    66 1   
    59    27    67 1   
    60    27    68 1   
    61    28    69 1   
    62    28    70 1   
    63    28    71 1   
    64    29    30 1   
    65    29    72 1   
    66    30    31 2   
    67    32    33 1   
    68    32    73 1   
    69    33    34 1   
    70    33    74 1   
    71    33    75 1   
    72    34    35 ar  
    73    34    39 ar  
    74    35    36 ar  
    75    35    76 1   
    76    36    37 ar  
    77    36    77 1   
    78    37    38 ar  
    79    37    78 1   
    80    38    39 ar  
    81    38    79 1   
    82    39    80 1   
@<TRIPOS>SUBSTRUCTURE
     1 R37         1 TEMP              0 ****  ****    0 ROOT
