@<TRIPOS>MOLECULE
R38
   38    39     1     0     0
SMALL
bcc


@<TRIPOS>ATOM
      1 N01          0.9140    -1.0540     0.4360 ns         1 R38      -0.507900
      2 C02         -0.1220    -2.0210     0.1760 c3         1 R38      -0.034300
      3 C03          0.3870    -3.4830     0.1790 c          1 R38       0.927600
      4 O04         -0.5000    -4.3480     0.0290 o          1 R38      -0.825800
      5 O05          1.6060    -3.6740     0.3200 o          1 R38      -0.825800
      6 C06         -1.2690    -1.8260     1.1840 c3         1 R38      -0.019200
      7 C07         -1.7670    -0.4220     1.2230 cc         1 R38      -0.095400
      8 C08         -2.4860     0.2640     0.1910 ca         1 R38      -0.092800
      9 C09         -2.6820     1.5940     0.6280 ca         1 R38      -0.048200
     10 N10         -2.1100     1.7030     1.8610 na         1 R38      -0.187400
     11 C11         -1.5620     0.4980     2.2110 cd         1 R38      -0.148100
     12 C12         -3.3620     2.5340    -0.1440 ca         1 R38      -0.166000
     13 C13         -3.8450     2.1240    -1.3720 ca         1 R38      -0.114000
     14 C14         -3.6600     0.8070    -1.8270 ca         1 R38      -0.178000
     15 C15         -2.9870    -0.1220    -1.0570 ca         1 R38      -0.049000
     16 C16          1.4590    -0.2560    -0.4860 c          1 R38       0.668100
     17 O17          1.2300    -0.3410    -1.6870 o          1 R38      -0.638100
     18 C18          2.3570     0.8400     0.0730 c3         1 R38      -0.139700
     19 C19          3.5700     1.0200    -0.8320 c3         1 R38       0.070700
     20 S20          4.7070     2.2480    -0.0990 sh         1 R38      -0.460900
     21 C21          1.5170     2.1140     0.2090 c3         1 R38      -0.085100
     22 H1           1.1900    -0.9210     1.3960 hn         1 R38       0.295500
     23 H2          -0.5060    -1.8080    -0.8250 h1         1 R38       0.069700
     24 H4          -2.0700    -2.5170     0.9180 hc         1 R38       0.057700
     25 H5          -0.9270    -2.1200     2.1820 hc         1 R38       0.057700
     26 H6          -2.0890     2.5320     2.4300 hn         1 R38       0.285700
     27 H7          -1.0550     0.3820     3.1570 h4         1 R38       0.153000
     28 H8          -3.5080     3.5500     0.2030 ha         1 R38       0.116000
     29 H9          -4.3770     2.8300    -1.9960 ha         1 R38       0.112000
     30 H10         -4.0530     0.5210    -2.7940 ha         1 R38       0.121000
     31 H11         -2.8510    -1.1360    -1.4150 ha         1 R38       0.150000
     32 H12          2.7090     0.5480     1.0680 hc         1 R38       0.059700
     33 H13          4.1050     0.0760    -0.9360 h1         1 R38       0.074700
     34 H14          3.2620     1.3540    -1.8210 h1         1 R38       0.074700
     35 H15          5.7210     2.0640    -0.9500 hs         1 R38       0.205800
     36 H16          2.0860     2.9180     0.6770 hc         1 R38       0.039700
     37 H17          1.1780     2.4620    -0.7670 hc         1 R38       0.039700
     38 H18          0.6370     1.9300     0.8260 hc         1 R38       0.039700
@<TRIPOS>BOND
     1     1     2 1   
     2     1    16 1   
     3     1    22 1   
     4     2     3 1   
     5     2     6 1   
     6     2    23 1   
     7     3     4 1   
     8     3     5 1   
     9     6     7 1   
    10     6    24 1   
    11     6    25 1   
    12     7     8 1   
    13     7    11 2   
    14     8     9 ar  
    15     8    15 ar  
    16     9    10 1   
    17     9    12 ar  
    18    10    11 1   
    19    10    26 1   
    20    11    27 1   
    21    12    13 ar  
    22    12    28 1   
    23    13    14 ar  
    24    13    29 1   
    25    14    15 ar  
    26    14    30 1   
    27    15    31 1   
    28    16    17 2   
    29    16    18 1   
    30    18    19 1   
    31    18    21 1   
    32    18    32 1   
    33    19    20 1   
    34    19    33 1   
    35    19    34 1   
    36    20    35 1   
    37    21    36 1   
    38    21    37 1   
    39    21    38 1   
@<TRIPOS>SUBSTRUCTURE
     1 R38         1 TEMP              0 ****  ****    0 ROOT
