@<TRIPOS>MOLECULE
R38
   38    39     1     0     0
SMALL
No Charge or Current Charge


@<TRIPOS>ATOM
      1 N01          1.0250    -1.0990     0.3710 ns         1 R38      -0.440900
      2 C02         -0.1120    -2.0290     0.1600 c3         1 R38      -0.034300
      3 C03          0.3710    -3.5080     0.2150 c          1 R38       0.717000
      4 O04          0.1400    -4.2260    -0.7490 o          1 R38      -0.720500
      5 O05          1.0270    -3.8750     1.1820 o          1 R38      -0.720500
      6 C06         -1.2470    -1.7700     1.1820 c3         1 R38      -0.019200
      7 C07         -1.7630    -0.3540     1.1720 cc         1 R38      -0.095400
      8 C08         -2.5660     0.2660     0.1550 ca         1 R38      -0.092800
      9 C09         -2.7930     1.5600     0.5320 ca         1 R38      -0.048200
     10 N10         -2.1860     1.8300     1.7440 na         1 R38      -0.237700
     11 C11         -1.5480     0.6270     2.1360 cd         1 R38      -0.198100
     12 C12         -3.5520     2.4310    -0.2600 ca         1 R38      -0.148000
     13 C13         -4.0850     1.9380    -1.4700 ca         1 R38      -0.096000
     14 C14         -3.8490     0.5980    -1.8590 ca         1 R38      -0.160000
     15 C15         -3.0800    -0.2570    -1.0410 ca         1 R38      -0.031000
     16 C16          1.2710     0.0380    -0.3700 c          1 R38       0.601100
     17 O17          0.6370     0.3190    -1.3790 o          1 R38      -0.638100
     18 C18          2.4190     0.9180     0.1540 c3         1 R38      -0.139700
     19 C19          3.5350     1.0120    -0.9100 c3         1 R38       0.118600
     20 S20          5.0850     1.8370    -0.3030 sh         1 R38      -0.508800
     21 C21          1.8850     2.3030     0.6010 c3         1 R38      -0.085100
     22 H1           1.6280    -1.2630     1.1680 hn         1 R38       0.295500
     23 H2          -0.5140    -1.8670    -0.8470 h1         1 R38       0.069700
     24 H4          -2.0740    -2.4600     0.9740 hc         1 R38       0.057700
     25 H5          -0.8880    -2.0190     2.1880 hc         1 R38       0.057700
     26 H6          -2.1990     2.7110     2.2500 hn         1 R38       0.336000
     27 H7          -0.9840     0.5570     3.0620 h4         1 R38       0.203000
     28 H8          -3.7280     3.4590     0.0480 ha         1 R38       0.098000
     29 H9          -4.6780     2.5910    -2.1060 ha         1 R38       0.094000
     30 H10         -4.2630     0.2240    -2.7930 ha         1 R38       0.103000
     31 H11         -2.8930    -1.2890    -1.3300 ha         1 R38       0.132000
     32 H12          2.8440     0.4300     1.0400 hc         1 R38       0.059700
     33 H13          3.8010    -0.0010    -1.2430 h1         1 R38       0.074700
     34 H14          3.1630     1.5620    -1.7850 h1         1 R38       0.074700
     35 H15          5.7750     1.7250    -1.4660 hs         1 R38       0.205800
     36 H16          2.6800     2.9040     1.0580 hc         1 R38       0.039700
     37 H17          1.4800     2.8600    -0.2520 hc         1 R38       0.039700
     38 H18          1.0850     2.1840     1.3420 hc         1 R38       0.039700
@<TRIPOS>BOND
     1     1     2 1   
     2     1    16 1   
     3     1    22 1   
     4     2     3 1   
     5     2     6 1   
     6     2    23 1   
     7     3     4 1   
     8     3     5 1   
     9     6     7 1   
    10     6    24 1   
    11     6    25 1   
    12     7     8 1   
    13     7    11 2   
    14     8     9 ar  
    15     8    15 ar  
    16     9    10 1   
    17     9    12 ar  
    18    10    11 1   
    19    10    26 1   
    20    11    27 1   
    21    12    13 ar  
    22    12    28 1   
    23    13    14 ar  
    24    13    29 1   
    25    14    15 ar  
    26    14    30 1   
    27    15    31 1   
    28    16    17 2   
    29    16    18 1   
    30    18    19 1   
    31    18    21 1   
    32    18    32 1   
    33    19    20 1   
    34    19    33 1   
    35    19    34 1   
    36    20    35 1   
    37    21    36 1   
    38    21    37 1   
    39    21    38 1   
@<TRIPOS>SUBSTRUCTURE
     1 R38         1 TEMP              0 ****  ****    0 ROOT
