@<TRIPOS>MOLECULE
R39
   70    73     1     0     0
SMALL
abcg2


@<TRIPOS>ATOM
      1 CAR          8.1170     0.3000    -1.2770 c6         1 R39       0.126300
      2 CAO          8.6710    -1.1120    -1.3080 c6         1 R39       0.153600
      3 OAX          9.8910    -1.2120    -0.6100 os         1 R39      -0.450000
      4 CAP          9.7370    -0.7880     0.7270 c6         1 R39       0.153600
      5 CAS          9.2150     0.6340     0.8020 c6         1 R39       0.126300
      6 NBG          7.9500     0.7410     0.0960 n3         1 R39      -0.704600
      7 CAT          7.4010     2.0760     0.2000 c3         1 R39       0.169800
      8 CAQ          5.9550     2.1790    -0.2300 c3         1 R39       0.165600
      9 OAY          5.1750     1.3530     0.6140 os         1 R39      -0.326100
     10 CBC          3.8450     1.2900     0.4070 ca         1 R39       0.130100
     11 CAK          3.1160     0.4870     1.2850 ca         1 R39      -0.154000
     12 CAI          1.7450     0.3560     1.1630 ca         1 R39      -0.095000
     13 CAJ          3.1650     1.9670    -0.6020 ca         1 R39      -0.154000
     14 CAH          1.7910     1.8130    -0.7350 ca         1 R39      -0.095000
     15 CBB          1.0650     1.0120     0.1360 ca         1 R39      -0.060000
     16 NAV         -0.3300     0.9420    -0.0230 ns         1 R39      -0.162000
     17 CAZ         -1.0850    -0.1770     0.1600 c          1 R39       0.670100
     18 OAE         -0.6510    -1.2410     0.5600 o          1 R39      -0.592100
     19 NAW         -2.4120     0.0190    -0.1430 ns         1 R39      -0.422100
     20 CBE         -3.3720    -0.9690    -0.0610 cc         1 R39       0.027600
     21 CAN         -3.3000    -2.3410    -0.0650 cd         1 R39      -0.229000
     22 CBF         -4.6470    -2.7680    -0.0350 cd         1 R39       0.280300
     23 CBI         -5.1340    -4.1920     0.0100 c3         1 R39      -0.072300
     24 CAC         -4.7410    -4.7970     1.3640 c3         1 R39      -0.080433
     25 CAD         -6.6520    -4.2620    -0.1560 c3         1 R39      -0.080433
     26 CAB         -4.4630    -4.9900    -1.1140 c3         1 R39      -0.080433
     27 NAU         -5.4700    -1.7440    -0.0170 nc         1 R39      -0.511800
     28 NBH         -4.6910    -0.6460    -0.0140 na         1 R39       0.178000
     29 CBD         -5.2870     0.6330    -0.0220 ca         1 R39       0.009800
     30 CAL         -4.8660     1.6180     0.8640 ca         1 R39      -0.108500
     31 CAF         -5.4700     2.8670     0.8410 ca         1 R39      -0.103500
     32 CBA         -6.5090     3.1530    -0.0400 ca         1 R39      -0.073300
     33 CAA         -7.1460     4.5110    -0.0720 c3         1 R39      -0.048800
     34 CAG         -6.9300     2.1430    -0.9040 ca         1 R39      -0.103500
     35 CAM         -6.3250     0.8970    -0.9070 ca         1 R39      -0.108500
     36 HAR          8.7840     0.9750    -1.8410 h1         1 R39       0.039700
     37 HARA         7.1550     0.2930    -1.7940 h1         1 R39       0.039700
     38 HAO          7.9270    -1.8000    -0.8830 h1         1 R39       0.052700
     39 HAOA         8.8580    -1.4150    -2.3400 h1         1 R39       0.052700
     40 HAP          9.0500    -1.4560     1.2640 h1         1 R39       0.052700
     41 HAPA        10.7150    -0.8540     1.2070 h1         1 R39       0.052700
     42 HAS          9.0680     0.9000     1.8510 h1         1 R39       0.039700
     43 HASA         9.9730     1.3250     0.3940 h1         1 R39       0.039700
     44 HAT          7.4800     2.3980     1.2420 h1         1 R39       0.042700
     45 HATA         7.9710     2.8100    -0.3950 h1         1 R39       0.042700
     46 HAQ          5.6400     3.2260    -0.1460 h1         1 R39       0.033200
     47 HAQA         5.8280     1.8900    -1.2780 h1         1 R39       0.033200
     48 HAK          3.6330    -0.0290     2.0840 ha         1 R39       0.124000
     49 HAI          1.2140    -0.2500     1.8810 ha         1 R39       0.124000
     50 HAJ          3.6790     2.6120    -1.3010 ha         1 R39       0.124000
     51 HAH          1.2830     2.3330    -1.5380 ha         1 R39       0.124000
     52 HNAV        -0.7510     1.7300    -0.4900 hn         1 R39       0.146000
     53 HNAW        -2.7090     0.9220    -0.4810 hn         1 R39       0.324500
     54 HAN         -2.4170    -2.9530    -0.1000 ha         1 R39       0.168000
     55 HAC         -5.2090    -4.2560     2.1880 hc         1 R39       0.036811
     56 HACA        -5.0590    -5.8400     1.4240 hc         1 R39       0.036811
     57 HACB        -3.6610    -4.7700     1.5160 hc         1 R39       0.036811
     58 HAD         -6.9700    -3.8500    -1.1150 hc         1 R39       0.036811
     59 HADA        -6.9810    -5.3020    -0.1130 hc         1 R39       0.036811
     60 HADB        -7.1700    -3.7140     0.6320 hc         1 R39       0.036811
     61 HAB         -3.3750    -4.9580    -1.0400 hc         1 R39       0.036811
     62 HABA        -4.7640    -6.0390    -1.0650 hc         1 R39       0.036811
     63 HABB        -4.7440    -4.6050    -2.0960 hc         1 R39       0.036811
     64 HAL         -4.0870     1.4150     1.5880 ha         1 R39       0.133000
     65 HAF         -5.1320     3.6240     1.5380 ha         1 R39       0.117500
     66 HAA         -6.6050     5.1800    -0.7440 hc         1 R39       0.045033
     67 HAAA        -8.1750     4.4600    -0.4250 hc         1 R39       0.045033
     68 HAAB        -7.1480     4.9750     0.9140 hc         1 R39       0.045033
     69 HAG         -7.7440     2.3320    -1.5930 ha         1 R39       0.117500
     70 HAM         -6.6630     0.1290    -1.5900 ha         1 R39       0.133000
@<TRIPOS>BOND
     1     1     2 1   
     2     1     6 1   
     3     1    36 1   
     4     1    37 1   
     5     2     3 1   
     6     2    38 1   
     7     2    39 1   
     8     3     4 1   
     9     4     5 1   
    10     4    40 1   
    11     4    41 1   
    12     5     6 1   
    13     5    42 1   
    14     5    43 1   
    15     6     7 1   
    16     7     8 1   
    17     7    44 1   
    18     7    45 1   
    19     8     9 1   
    20     8    46 1   
    21     8    47 1   
    22     9    10 1   
    23    10    11 ar  
    24    10    13 ar  
    25    11    12 ar  
    26    11    48 1   
    27    12    15 ar  
    28    12    49 1   
    29    13    14 ar  
    30    13    50 1   
    31    14    15 ar  
    32    14    51 1   
    33    15    16 1   
    34    16    17 1   
    35    16    52 1   
    36    17    18 2   
    37    17    19 1   
    38    19    20 1   
    39    19    53 1   
    40    20    21 2   
    41    20    28 1   
    42    21    22 1   
    43    21    54 1   
    44    22    23 1   
    45    22    27 2   
    46    23    24 1   
    47    23    25 1   
    48    23    26 1   
    49    24    55 1   
    50    24    56 1   
    51    24    57 1   
    52    25    58 1   
    53    25    59 1   
    54    25    60 1   
    55    26    61 1   
    56    26    62 1   
    57    26    63 1   
    58    27    28 1   
    59    28    29 1   
    60    29    30 ar  
    61    29    35 ar  
    62    30    31 ar  
    63    30    64 1   
    64    31    32 ar  
    65    31    65 1   
    66    32    33 1   
    67    32    34 ar  
    68    33    66 1   
    69    33    67 1   
    70    33    68 1   
    71    34    35 ar  
    72    34    69 1   
    73    35    70 1   
@<TRIPOS>SUBSTRUCTURE
     1 R39         1 TEMP              0 ****  ****    0 ROOT
