@<TRIPOS>MOLECULE
R39
   70    73     1     0     0
SMALL
No Charge or Current Charge


@<TRIPOS>ATOM
      1 CAR          8.1430     1.2780    -1.3760 c6         1 R39       0.126300
      2 CAO          8.8710     0.2100    -2.2470 c6         1 R39       0.153600
      3 OAX         10.2330     0.0300    -1.7910 os         1 R39      -0.450000
      4 CAP         10.3060    -0.3770    -0.4030 c6         1 R39       0.153600
      5 CAS          9.6120     0.6800     0.5070 c6         1 R39       0.126300
      6 NBG          8.2000     0.9390     0.0830 n3         1 R39      -0.704600
      7 CAT          7.5150     1.9310     0.9630 c3         1 R39       0.169800
      8 CAQ          5.9960     2.1460     0.7120 c3         1 R39       0.165600
      9 OAY          5.3040     0.8960     0.9070 os         1 R39      -0.326100
     10 CBC          3.9390     0.7790     0.7470 ca         1 R39       0.130100
     11 CAK          3.3590    -0.4820     0.9480 ca         1 R39      -0.154000
     12 CAI          1.9730    -0.6670     0.8000 ca         1 R39      -0.095000
     13 CAJ          3.1160     1.8690     0.3920 ca         1 R39      -0.154000
     14 CAH          1.7300     1.6850     0.2430 ca         1 R39      -0.095000
     15 CBB          1.1430     0.4200     0.4450 ca         1 R39      -0.060000
     16 NAV         -0.2670     0.3150     0.2750 ns         1 R39      -0.162000
     17 CAZ         -1.1460    -0.7540     0.3920 c          1 R39       0.670100
     18 OAE         -0.8210    -1.8940     0.6900 o          1 R39      -0.592100
     19 NAW         -2.4500    -0.3780     0.1320 ns         1 R39      -0.422100
     20 CBE         -3.6060    -1.1570     0.1430 cc         1 R39       0.027600
     21 CAN         -3.7490    -2.4930     0.3770 cd         1 R39      -0.229000
     22 CBF         -5.1280    -2.8130     0.2530 cd         1 R39       0.280300
     23 CBI         -5.7360    -4.2040     0.4350 c3         1 R39      -0.072300
     24 CAC         -5.4310    -4.7050     1.8710 c3         1 R39      -0.080433
     25 CAD         -7.2790    -4.2100     0.2260 c3         1 R39      -0.080433
     26 CAB         -5.0970    -5.1740    -0.5940 c3         1 R39      -0.080433
     27 NAU         -5.8650    -1.7510    -0.0450 nc         1 R39      -0.511800
     28 NBH         -4.9130    -0.7610    -0.1120 na         1 R39       0.178000
     29 CBD         -5.2920     0.5590    -0.3650 ca         1 R39       0.009800
     30 CAL         -5.0040     1.5760     0.5680 ca         1 R39      -0.108500
     31 CAF         -5.3790     2.9050     0.3070 ca         1 R39      -0.103500
     32 CBA         -6.0480     3.2340    -0.8870 ca         1 R39      -0.073300
     33 CAA         -6.4500     4.6730    -1.1700 c3         1 R39      -0.048800
     34 CAG         -6.3390     2.2190    -1.8180 ca         1 R39      -0.103500
     35 CAM         -5.9650     0.8890    -1.5580 ca         1 R39      -0.108500
     36 HAR          8.6070     2.2580    -1.5590 h1         1 R39       0.039700
     37 HARA         7.1010     1.3440    -1.7190 h1         1 R39       0.039700
     38 HAO          8.3380    -0.7490    -2.1870 h1         1 R39       0.052700
     39 HAOA         8.8830     0.5300    -3.2990 h1         1 R39       0.052700
     40 HAP          9.8150    -1.3540    -0.2850 h1         1 R39       0.052700
     41 HAPA        11.3600    -0.4860    -0.1140 h1         1 R39       0.052700
     42 HAS          9.6370     0.3210     1.5460 h1         1 R39       0.039700
     43 HASA        10.1970     1.6110     0.4730 h1         1 R39       0.039700
     44 HAT          7.6300     1.6250     2.0120 h1         1 R39       0.042700
     45 HATA         8.0100     2.9070     0.8680 h1         1 R39       0.042700
     46 HAQ          5.6270     2.9000     1.4190 h1         1 R39       0.033200
     47 HAQA         5.8380     2.5260    -0.3050 h1         1 R39       0.033200
     48 HAK          3.9890    -1.3240     1.2210 ha         1 R39       0.124000
     49 HAI          1.5680    -1.6600     0.9650 ha         1 R39       0.124000
     50 HAJ          3.5300     2.8600     0.2280 ha         1 R39       0.124000
     51 HAH          1.1070     2.5350    -0.0310 ha         1 R39       0.124000
     52 HNAV        -0.7070     1.1890     0.0210 hn         1 R39       0.146000
     53 HNAW        -2.5580     0.6010    -0.0990 hn         1 R39       0.324500
     54 HAN         -2.9620    -3.1980     0.6120 ha         1 R39       0.168000
     55 HAC         -5.8550    -4.0230     2.6180 hc         1 R39       0.036811
     56 HACA        -5.8580    -5.7020     2.0400 hc         1 R39       0.036811
     57 HACB        -4.3510    -4.7690     2.0480 hc         1 R39       0.036811
     58 HAD         -7.5420    -3.8760    -0.7850 hc         1 R39       0.036811
     59 HADA        -7.6890    -5.2180     0.3620 hc         1 R39       0.036811
     60 HADB        -7.7770    -3.5480     0.9460 hc         1 R39       0.036811
     61 HAB         -4.0120    -5.2450    -0.4520 hc         1 R39       0.036811
     62 HABA        -5.5140    -6.1840    -0.4960 hc         1 R39       0.036811
     63 HABB        -5.2800    -4.8280    -1.6190 hc         1 R39       0.036811
     64 HAL         -4.4950     1.3340     1.4990 ha         1 R39       0.133000
     65 HAF         -5.1490     3.6810     1.0350 ha         1 R39       0.117500
     66 HAA         -5.6500     5.2050    -1.6980 hc         1 R39       0.045033
     67 HAAA        -7.3520     4.7220    -1.7920 hc         1 R39       0.045033
     68 HAAB        -6.6610     5.2190    -0.2430 hc         1 R39       0.045033
     69 HAG         -6.8540     2.4610    -2.7460 ha         1 R39       0.117500
     70 HAM         -6.1940     0.1130    -2.2860 ha         1 R39       0.133000
@<TRIPOS>BOND
     1     1     2 1   
     2     1     6 1   
     3     1    36 1   
     4     1    37 1   
     5     2     3 1   
     6     2    38 1   
     7     2    39 1   
     8     3     4 1   
     9     4     5 1   
    10     4    40 1   
    11     4    41 1   
    12     5     6 1   
    13     5    42 1   
    14     5    43 1   
    15     6     7 1   
    16     7     8 1   
    17     7    44 1   
    18     7    45 1   
    19     8     9 1   
    20     8    46 1   
    21     8    47 1   
    22     9    10 1   
    23    10    11 ar  
    24    10    13 ar  
    25    11    12 ar  
    26    11    48 1   
    27    12    15 ar  
    28    12    49 1   
    29    13    14 ar  
    30    13    50 1   
    31    14    15 ar  
    32    14    51 1   
    33    15    16 1   
    34    16    17 1   
    35    16    52 1   
    36    17    18 2   
    37    17    19 1   
    38    19    20 1   
    39    19    53 1   
    40    20    21 2   
    41    20    28 1   
    42    21    22 1   
    43    21    54 1   
    44    22    23 1   
    45    22    27 2   
    46    23    24 1   
    47    23    25 1   
    48    23    26 1   
    49    24    55 1   
    50    24    56 1   
    51    24    57 1   
    52    25    58 1   
    53    25    59 1   
    54    25    60 1   
    55    26    61 1   
    56    26    62 1   
    57    26    63 1   
    58    27    28 1   
    59    28    29 1   
    60    29    30 ar  
    61    29    35 ar  
    62    30    31 ar  
    63    30    64 1   
    64    31    32 ar  
    65    31    65 1   
    66    32    33 1   
    67    32    34 ar  
    68    33    66 1   
    69    33    67 1   
    70    33    68 1   
    71    34    35 ar  
    72    34    69 1   
    73    35    70 1   
@<TRIPOS>SUBSTRUCTURE
     1 R39         1 TEMP              0 ****  ****    0 ROOT
