@<TRIPOS>MOLECULE
R3A
   56    58     1     0     0
SMALL
bcc


@<TRIPOS>ATOM
      1 C2          -5.7190   -16.2330     8.1940 c          1 R3A       0.644100
      2 C7          -3.5980   -16.3320     5.9880 c3         1 R3A      -0.090100
      3 C8          -3.2870   -18.7650     6.5330 c3         1 R3A      -0.090100
      4 C9          -7.5420   -17.8720     7.7130 c6         1 R3A       0.055000
      5 C10         -8.5050   -17.8260     6.5380 c6         1 R3A       0.115400
      6 C12         -8.9880   -15.5860     6.9220 c6         1 R3A       0.115400
      7 C13         -8.0470   -15.5390     8.1110 c6         1 R3A       0.055000
      8 C14         -6.2160   -17.6390    11.1190 ca         1 R3A      -0.030000
      9 C15         -5.0470   -16.8670    11.1750 ca         1 R3A      -0.321500
     10 C16         -5.0680   -15.5780    11.6400 ca         1 R3A       0.034000
     11 C19         -7.4100   -17.0800    11.4830 ca         1 R3A      -0.146000
     12 C20         -6.3700   -13.6540    12.5760 ca         1 R3A       0.750200
     13 C22         -8.6610   -13.8070    12.7010 ca         1 R3A       0.488200
     14 C23         -8.6880   -15.0970    12.2690 ca         1 R3A      -0.160900
     15 C18         -7.4740   -15.7460    11.9340 ca         1 R3A       0.069000
     16 N21         -7.5250   -13.1110    12.8640 nb         1 R3A      -0.791000
     17 N28         -5.2250   -12.9460    12.7780 nu         1 R3A      -0.831900
     18 C29         -5.0140   -11.6370    13.2290 c2         1 R3A       0.833100
     19 N31         -3.7910   -11.3400    13.4570 n2         1 R3A      -0.904100
     20 N30         -6.0960   -10.8290    13.3130 nv         1 R3A      -0.977800
     21 C17         -6.2770   -14.9980    12.0560 ca         1 R3A      -0.208300
     22 N5          -3.5220   -17.0170     8.9160 n7         1 R3A      -0.781100
     23 C4          -4.6670   -17.3450     8.0820 c3         1 R3A       0.131500
     24 C6          -4.2270   -17.5680     6.6190 c3         1 R3A      -0.041700
     25 O3          -5.3520   -15.0980     8.4660 o          1 R3A      -0.612100
     26 N1          -7.0070   -16.5440     7.9600 n          1 R3A      -0.465800
     27 O11         -9.5250   -16.8770     6.7360 os         1 R3A      -0.393600
     28 H1          -4.2750   -15.4790     5.9600 hc         1 R3A       0.043200
     29 H2          -2.6920   -16.0300     6.5180 hc         1 R3A       0.043200
     30 H3          -3.3090   -16.5500     4.9600 hc         1 R3A       0.043200
     31 H4          -3.7200   -19.6520     6.9970 hc         1 R3A       0.043200
     32 H5          -3.0750   -19.0050     5.4910 hc         1 R3A       0.043200
     33 H6          -2.3380   -18.5550     7.0270 hc         1 R3A       0.043200
     34 H7          -8.0600   -18.2280     8.6110 h1         1 R3A       0.064950
     35 H8          -6.7590   -18.5900     7.4850 h1         1 R3A       0.064950
     36 H9          -8.9780   -18.8010     6.4190 h1         1 R3A       0.057200
     37 H10         -7.9420   -17.6060     5.6200 h1         1 R3A       0.057200
     38 H11         -8.4520   -15.2580     6.0210 h1         1 R3A       0.057200
     39 H12         -9.8220   -14.9030     7.0870 h1         1 R3A       0.057200
     40 H13         -7.6000   -14.5520     8.1940 h1         1 R3A       0.064950
     41 H14         -8.6000   -15.7330     9.0370 h1         1 R3A       0.064950
     42 H15         -6.1870   -18.6680    10.7870 ha         1 R3A       0.156000
     43 H16         -4.1440   -15.0170    11.6580 ha         1 R3A       0.155000
     44 H17         -8.3110   -17.6730    11.4230 ha         1 R3A       0.153000
     45 H18         -9.5790   -13.2860    12.9440 h4         1 R3A       0.034100
     46 H19         -4.3470   -13.4290    12.6820 hn         1 R3A       0.471800
     47 H20         -3.7030   -10.3770    13.7590 hn         1 R3A       0.395400
     48 H21         -5.9840    -9.9720    13.8260 hn         1 R3A       0.439300
     49 H22         -7.0100   -11.2600    13.3320 hn         1 R3A       0.439300
     50 H23         -3.2450   -16.0410     8.8430 hn         1 R3A       0.446800
     51 H24         -5.0610   -18.3000     8.4360 h1         1 R3A       0.080700
     52 H25         -5.1360   -17.8120     6.0580 hc         1 R3A       0.042700
     53 S24         -3.5420   -17.5110    10.4900 sy         1 R3A       1.286200
     54 CL27       -10.1990   -15.9150    12.1000 cl         1 R3A      -0.089400
     55 O25         -3.6550   -18.9580    10.4890 o          1 R3A      -0.600300
     56 O26         -2.4140   -16.8600    11.1320 o          1 R3A      -0.600300
@<TRIPOS>BOND
     1     1    23 1   
     2     1    25 2   
     3     1    26 1   
     4     2    24 1   
     5     2    28 1   
     6     2    29 1   
     7     2    30 1   
     8     3    24 1   
     9     3    31 1   
    10     3    32 1   
    11     3    33 1   
    12     4     5 1   
    13     4    26 1   
    14     4    34 1   
    15     4    35 1   
    16     5    27 1   
    17     5    36 1   
    18     5    37 1   
    19     6     7 1   
    20     6    27 1   
    21     6    38 1   
    22     6    39 1   
    23     7    26 1   
    24     7    40 1   
    25     7    41 1   
    26     8     9 ar  
    27     8    11 ar  
    28     8    42 1   
    29     9    10 ar  
    30     9    53 1   
    31    10    21 ar  
    32    10    43 1   
    33    11    15 ar  
    34    11    44 1   
    35    12    16 ar  
    36    12    17 1   
    37    12    21 ar  
    38    13    14 ar  
    39    13    16 ar  
    40    13    45 1   
    41    14    15 ar  
    42    14    54 1   
    43    15    21 ar  
    44    17    18 1   
    45    17    46 1   
    46    18    19 2   
    47    18    20 1   
    48    19    47 1   
    49    20    48 1   
    50    20    49 1   
    51    22    23 1   
    52    22    50 1   
    53    22    53 1   
    54    23    24 1   
    55    23    51 1   
    56    24    52 1   
    57    53    55 2   
    58    53    56 2   
@<TRIPOS>SUBSTRUCTURE
     1 R3A         1 TEMP              0 ****  ****    0 ROOT
