@<TRIPOS>MOLECULE
R3A
   56    58     1     0     0
SMALL
No Charge or Current Charge


@<TRIPOS>ATOM
      1 C2          -5.2110   -15.7120     8.2490 c          1 R3A       0.577100
      2 C7          -3.2280   -16.6890     5.9750 c3         1 R3A      -0.090100
      3 C8          -3.6700   -19.0620     6.8170 c3         1 R3A      -0.090100
      4 C9          -7.4190   -16.9860     8.1730 c6         1 R3A       0.055000
      5 C10         -8.8750   -16.9200     7.6460 c6         1 R3A       0.138600
      6 C12         -8.8280   -14.5460     7.4520 c6         1 R3A       0.138600
      7 C13         -7.3740   -14.4520     7.9770 c6         1 R3A       0.055000
      8 C14         -5.4660   -17.9350    11.4020 ca         1 R3A      -0.012000
      9 C15         -4.7340   -16.7540    11.1750 ca         1 R3A      -0.321500
     10 C16         -5.3470   -15.5000    11.3650 ca         1 R3A       0.052000
     11 C19         -6.8160   -17.8610    11.7790 ca         1 R3A      -0.128000
     12 C20         -7.3740   -14.1840    11.8800 ca         1 R3A       0.684900
     13 C22         -9.3710   -15.2030    12.3810 ca         1 R3A       0.422900
     14 C23         -8.8130   -16.4910    12.2660 ca         1 R3A      -0.004000
     15 C18         -7.4480   -16.6080    11.9260 ca         1 R3A       0.069000
     16 N21         -8.6710   -14.0620    12.1870 nb         1 R3A      -0.791000
     17 N28         -6.7860   -12.9770    11.6520 nu         1 R3A      -0.887100
     18 C29         -6.2690   -12.1650    12.5140 c2         1 R3A       0.833100
     19 N31         -6.0310   -12.5150    13.6830 n2         1 R3A      -0.904100
     20 N30         -5.4270   -11.5410    11.7410 nv         1 R3A      -1.088200
     21 C17         -6.7110   -15.4220    11.7190 ca         1 R3A      -0.143000
     22 N5          -3.0870   -16.9840     9.0040 n7         1 R3A      -0.836300
     23 C4          -4.3960   -17.0610     8.2730 c3         1 R3A       0.131500
     24 C6          -4.1580   -17.5930     6.8230 c3         1 R3A      -0.041700
     25 O3          -4.6430   -14.6390     8.4270 o          1 R3A      -0.612100
     26 N1          -6.6040   -15.7390     7.9740 n          1 R3A      -0.398800
     27 O11         -9.4960   -15.6820     8.0250 os         1 R3A      -0.440000
     28 H1          -3.6060   -15.6600     5.9310 hc         1 R3A       0.043200
     29 H2          -2.2110   -16.6670     6.3850 hc         1 R3A       0.043200
     30 H3          -3.1660   -17.0620     4.9450 hc         1 R3A       0.043200
     31 H4          -4.3640   -19.7040     7.3730 hc         1 R3A       0.043200
     32 H5          -3.6070   -19.4440     5.7900 hc         1 R3A       0.043200
     33 H6          -2.6780   -19.1510     7.2750 hc         1 R3A       0.043200
     34 H7          -7.4540   -17.2090     9.2470 h1         1 R3A       0.064950
     35 H8          -6.9330   -17.8410     7.6850 h1         1 R3A       0.064950
     36 H9          -9.4580   -17.7580     8.0530 h1         1 R3A       0.057200
     37 H10         -8.8800   -17.0060     6.5500 h1         1 R3A       0.057200
     38 H11         -8.8260   -14.6420     6.3560 h1         1 R3A       0.057200
     39 H12         -9.3790   -13.6310     7.7110 h1         1 R3A       0.057200
     40 H13         -6.8370   -13.7050     7.3750 h1         1 R3A       0.064950
     41 H14         -7.4050   -14.0700     9.0060 h1         1 R3A       0.064950
     42 H15         -4.9960   -18.9110    11.2780 ha         1 R3A       0.138000
     43 H16         -4.7640   -14.5930    11.2180 ha         1 R3A       0.137000
     44 H17         -7.3620   -18.7870    11.9400 ha         1 R3A       0.135000
     45 H18        -10.4230   -15.0830    12.6340 h4         1 R3A       0.034100
     46 H19         -6.1250   -12.9990    10.9000 hn         1 R3A       0.527000
     47 H20         -5.3370   -11.8710    14.0760 hn         1 R3A       0.395400
     48 H21         -4.6230   -11.1990    12.2500 hn         1 R3A       0.494500
     49 H22         -5.8900   -10.7920    11.2380 hn         1 R3A       0.494500
     50 H23         -2.6140   -16.1200     8.7380 hn         1 R3A       0.502000
     51 H24         -5.0290   -17.8060     8.7690 h1         1 R3A       0.080700
     52 H25         -5.1300   -17.5940     6.3140 hc         1 R3A       0.042700
     53 S24         -3.0080   -16.8400    10.6690 sy         1 R3A       1.144600
     54 Cl27        -9.8430   -17.9040    12.5350 cl         1 R3A      -0.181000
     55 O25         -2.4050   -18.0860    11.1450 o          1 R3A      -0.529500
     56 O26         -2.3840   -15.5350    10.8890 o          1 R3A      -0.529500
@<TRIPOS>BOND
     1     1    23 1   
     2     1    25 2   
     3     1    26 1   
     4     2    24 1   
     5     2    28 1   
     6     2    29 1   
     7     2    30 1   
     8     3    24 1   
     9     3    31 1   
    10     3    32 1   
    11     3    33 1   
    12     4     5 1   
    13     4    26 1   
    14     4    34 1   
    15     4    35 1   
    16     5    27 1   
    17     5    36 1   
    18     5    37 1   
    19     6     7 1   
    20     6    27 1   
    21     6    38 1   
    22     6    39 1   
    23     7    26 1   
    24     7    40 1   
    25     7    41 1   
    26     8     9 ar  
    27     8    11 ar  
    28     8    42 1   
    29     9    10 ar  
    30     9    53 1   
    31    10    21 ar  
    32    10    43 1   
    33    11    15 ar  
    34    11    44 1   
    35    12    16 ar  
    36    12    17 1   
    37    12    21 ar  
    38    13    14 ar  
    39    13    16 ar  
    40    13    45 1   
    41    14    15 ar  
    42    14    54 1   
    43    15    21 ar  
    44    17    18 1   
    45    17    46 1   
    46    18    19 2   
    47    18    20 1   
    48    19    47 1   
    49    20    48 1   
    50    20    49 1   
    51    22    23 1   
    52    22    50 1   
    53    22    53 1   
    54    23    24 1   
    55    23    51 1   
    56    24    52 1   
    57    53    55 2   
    58    53    56 2   
@<TRIPOS>SUBSTRUCTURE
     1 R3A         1 TEMP              0 ****  ****    0 ROOT
