@<TRIPOS>MOLECULE
R3B
  105   110     1     0     0
SMALL
bcc


@<TRIPOS>ATOM
      1 C3          25.9060     0.3680    -1.0120 c3         1 R3B       0.142400
      2 CBK         19.4480     3.9270    -0.5860 c6         1 R3B      -0.073900
      3 CBL         18.2820     4.6710     0.0590 c6         1 R3B      -0.072400
      4 CBM         17.1240     4.8550    -0.9150 c6         1 R3B      -0.075400
      5 CBN         16.6890     3.5140    -1.4910 c6         1 R3B      -0.072400
      6 CBO         17.8610     2.7790    -2.1340 c6         1 R3B      -0.073900
      7 CBJ         19.0120     2.5710    -1.1460 c6         1 R3B      -0.044700
      8 CBI         20.1960     1.8360    -1.8040 c3         1 R3B      -0.086400
      9 CBG         19.7990     0.4270    -2.2500 c          1 R3B       0.687100
     10 OBH         18.8950    -0.1720    -1.6840 o          1 R3B      -0.605100
     11 N           20.4730    -0.1300    -3.2880 n          1 R3B      -0.462800
     12 CBE         21.7000     0.3880    -3.8780 c6         1 R3B       0.100000
     13 CBD         21.6170     0.4270    -5.3950 c6         1 R3B      -0.093400
     14 CBC         21.2600    -0.9440    -5.9500 c6         1 R3B      -0.077400
     15 CB          19.9830    -1.4520    -5.2950 c6         1 R3B      -0.074400
     16 CA          20.0700    -1.4390    -3.7710 c6         1 R3B       0.046700
     17 C           20.9600    -2.5560    -3.2360 c          1 R3B       0.630100
     18 O           21.1940    -3.5720    -3.8390 o          1 R3B      -0.535000
     19 OAX         21.3840    -2.3010    -2.0090 os         1 R3B      -0.414900
     20 CAK         22.2310    -3.2640    -1.3480 c3         1 R3B       0.200400
     21 CAL         22.0710    -2.9820     0.1390 c3         1 R3B      -0.072400
     22 CAM         22.9940    -3.8050     1.0370 c3         1 R3B      -0.023100
     23 CAN         22.8840    -5.2950     0.8550 ca         1 R3B      -0.082300
     24 CAO         21.6810    -5.9530     1.1390 ca         1 R3B      -0.188000
     25 CAP         23.9570    -6.0460     0.4160 ca         1 R3B      -0.121000
     26 CAQ         23.8500    -7.4280     0.2570 ca         1 R3B      -0.188000
     27 CAR         22.6620    -8.0780     0.5360 ca         1 R3B       0.110100
     28 OAS         22.4550    -9.4050     0.4150 os         1 R3B      -0.297900
     29 CAT         23.5300   -10.2060    -0.0240 c3         1 R3B       0.122700
     30 CAU         21.5580    -7.3230     0.9880 ca         1 R3B       0.113100
     31 OAV         20.4410    -8.0300     1.2480 os         1 R3B      -0.298900
     32 CAW         19.3010    -7.3340     1.7060 c3         1 R3B       0.122700
     33 CAJ         23.6440    -3.1150    -1.8460 ca         1 R3B      -0.079300
     34 CAI         24.3360    -1.9300    -1.6010 ca         1 R3B      -0.198000
     35 CAF         24.2630    -4.1550    -2.5220 ca         1 R3B      -0.133000
     36 CAE         25.5800    -4.0110    -2.9440 ca         1 R3B      -0.103000
     37 CAG         26.2770    -2.8450    -2.6940 ca         1 R3B      -0.157000
     38 CAH         25.6570    -1.7940    -2.0130 ca         1 R3B       0.130100
     39 OAH         26.4100    -0.6950    -1.8080 os         1 R3B      -0.328900
     40 C33         25.9740     0.0470     0.4790 c3         1 R3B      -0.148400
     41 CBW         25.8840     1.2540     1.4060 c3         1 R3B       0.152400
     42 OBW         24.5750     1.6790     1.7840 os         1 R3B      -0.313900
     43 CBV         23.5690     1.6940     0.8760 ca         1 R3B       0.046100
     44 CBS         22.4470     0.8920     1.1090 ca         1 R3B       0.140600
     45 OBT         22.5000     0.1180     2.2100 os         1 R3B      -0.307400
     46 CBU         21.2930    -0.4320     2.7010 c3         1 R3B       0.120700
     47 CBR         21.3620     0.9270     0.2360 ca         1 R3B      -0.230000
     48 CBP         21.3940     1.7560    -0.8780 ca         1 R3B      -0.017300
     49 CBQ         22.4980     2.5660    -1.1100 ca         1 R3B      -0.230000
     50 CBY         23.5730     2.5550    -0.2260 ca         1 R3B       0.140600
     51 OBZ         24.6650     3.3320    -0.3500 os         1 R3B      -0.307400
     52 CCA         24.7680     4.1810    -1.4750 c3         1 R3B       0.120700
     53 H31         26.5590     1.2130    -1.2310 h1         1 R3B       0.055700
     54 H32         24.9000     0.6410    -1.3380 h1         1 R3B       0.055700
     55 HCD         19.8640     4.5360    -1.3980 hc         1 R3B       0.041450
     56 HBL         18.6240     5.6400     0.4320 hc         1 R3B       0.040450
     57 HCE         17.9380     4.1060     0.9310 hc         1 R3B       0.040450
     58 HCF         17.4410     5.5120    -1.7320 hc         1 R3B       0.037700
     59 HBM         16.2850     5.3510    -0.4210 hc         1 R3B       0.037700
     60 HCG         15.8920     3.6550    -2.2250 hc         1 R3B       0.040450
     61 HBN         16.2690     2.8940    -0.6920 hc         1 R3B       0.040450
     62 HBO         17.5150     1.8260    -2.5360 hc         1 R3B       0.041450
     63 HCH         18.2280     3.3640    -2.9860 hc         1 R3B       0.041450
     64 HBJ         18.6510     1.9630    -0.3090 hc         1 R3B       0.070700
     65 HBI         20.4830     2.4290    -2.6780 hc         1 R3B       0.063700
     66 HBE         22.5420    -0.2410    -3.5670 h1         1 R3B       0.052200
     67 HCI         21.9120     1.3790    -3.4930 h1         1 R3B       0.052200
     68 HCJ         22.5740     0.7710    -5.7900 hc         1 R3B       0.047700
     69 HBD         20.8610     1.1590    -5.6940 hc         1 R3B       0.047700
     70 HBC         21.1300    -0.8980    -7.0330 hc         1 R3B       0.052200
     71 HCK         22.0820    -1.6420    -5.7640 hc         1 R3B       0.052200
     72 HB1         19.1450    -0.8120    -5.5830 hc         1 R3B       0.061200
     73 HB2         19.7370    -2.4580    -5.6360 hc         1 R3B       0.061200
     74 HA          19.0760    -1.6460    -3.3660 h1         1 R3B       0.107700
     75 HAK         21.8730    -4.2730    -1.5690 h1         1 R3B       0.077700
     76 HAL         22.2670    -1.9240     0.3280 hc         1 R3B       0.053700
     77 H35         21.0270    -3.1570     0.4130 hc         1 R3B       0.053700
     78 HAM         24.0300    -3.4980     0.8770 hc         1 R3B       0.052200
     79 H36         22.7590    -3.5420     2.0720 hc         1 R3B       0.052200
     80 HAO         20.8400    -5.3690     1.4930 ha         1 R3B       0.134000
     81 HAP         24.9000    -5.5640     0.1900 ha         1 R3B       0.135000
     82 HAQ         24.7130    -7.9810    -0.0890 ha         1 R3B       0.136000
     83 HAT         23.1620   -11.2290    -0.0530 h1         1 R3B       0.038700
     84 H37         23.8680    -9.9270    -1.0260 h1         1 R3B       0.038700
     85 H38         24.3840   -10.1590     0.6580 h1         1 R3B       0.038700
     86 H4A         18.5210    -8.0780     1.8470 h1         1 R3B       0.038700
     87 HAW         19.4820    -6.8300     2.6590 h1         1 R3B       0.038700
     88 H39         18.9530    -6.5930     0.9790 h1         1 R3B       0.038700
     89 HAI         23.8310    -1.1280    -1.0760 ha         1 R3B       0.144000
     90 HAF         23.7270    -5.0760    -2.7090 ha         1 R3B       0.145000
     91 HAE         26.0700    -4.8190    -3.4720 ha         1 R3B       0.133000
     92 HAG         27.3050    -2.7360    -3.0170 ha         1 R3B       0.143000
     93 H33         25.2390    -0.7070     0.7720 hc         1 R3B       0.064200
     94 H34         26.9560    -0.3970     0.6670 hc         1 R3B       0.064200
     95 HBX         26.3580     0.9950     2.3530 h1         1 R3B       0.052200
     96 HBY         26.4510     2.0890     0.9850 h1         1 R3B       0.052200
     97 HBW         21.5330    -0.9000     3.6530 h1         1 R3B       0.043033
     98 HBU         20.5360     0.3390     2.8650 h1         1 R3B       0.043033
     99 HBV         20.8790    -1.1940     2.0370 h1         1 R3B       0.043033
    100 HBR         20.4910     0.3140     0.4220 ha         1 R3B       0.148000
    101 HBQ         22.4920     3.2240    -1.9700 ha         1 R3B       0.148000
    102 HCA         25.7200     4.6970    -1.3840 h1         1 R3B       0.043033
    103 HCB         24.7590     3.6170    -2.4120 h1         1 R3B       0.043033
    104 HCC         23.9660     4.9230    -1.5020 h1         1 R3B       0.043033
    105 HBK         20.2480     3.7990     0.1460 hc         1 R3B       0.041450
@<TRIPOS>BOND
     1     1    39 1   
     2     1    40 1   
     3     1    53 1   
     4     1    54 1   
     5     2     3 1   
     6     2     7 1   
     7     2    55 1   
     8     2   105 1   
     9     3     4 1   
    10     3    56 1   
    11     3    57 1   
    12     4     5 1   
    13     4    58 1   
    14     4    59 1   
    15     5     6 1   
    16     5    60 1   
    17     5    61 1   
    18     6     7 1   
    19     6    62 1   
    20     6    63 1   
    21     7     8 1   
    22     7    64 1   
    23     8     9 1   
    24     8    48 1   
    25     8    65 1   
    26     9    10 2   
    27     9    11 1   
    28    11    12 1   
    29    11    16 1   
    30    12    13 1   
    31    12    66 1   
    32    12    67 1   
    33    13    14 1   
    34    13    68 1   
    35    13    69 1   
    36    14    15 1   
    37    14    70 1   
    38    14    71 1   
    39    15    16 1   
    40    15    72 1   
    41    15    73 1   
    42    16    17 1   
    43    16    74 1   
    44    17    18 2   
    45    17    19 1   
    46    19    20 1   
    47    20    21 1   
    48    20    33 1   
    49    20    75 1   
    50    21    22 1   
    51    21    76 1   
    52    21    77 1   
    53    22    23 1   
    54    22    78 1   
    55    22    79 1   
    56    23    24 ar  
    57    23    25 ar  
    58    24    30 ar  
    59    24    80 1   
    60    25    26 ar  
    61    25    81 1   
    62    26    27 ar  
    63    26    82 1   
    64    27    28 1   
    65    27    30 ar  
    66    28    29 1   
    67    29    83 1   
    68    29    84 1   
    69    29    85 1   
    70    30    31 1   
    71    31    32 1   
    72    32    86 1   
    73    32    87 1   
    74    32    88 1   
    75    33    34 ar  
    76    33    35 ar  
    77    34    38 ar  
    78    34    89 1   
    79    35    36 ar  
    80    35    90 1   
    81    36    37 ar  
    82    36    91 1   
    83    37    38 ar  
    84    37    92 1   
    85    38    39 1   
    86    40    41 1   
    87    40    93 1   
    88    40    94 1   
    89    41    42 1   
    90    41    95 1   
    91    41    96 1   
    92    42    43 1   
    93    43    44 ar  
    94    43    50 ar  
    95    44    45 1   
    96    44    47 ar  
    97    45    46 1   
    98    46    97 1   
    99    46    98 1   
   100    46    99 1   
   101    47    48 ar  
   102    47   100 1   
   103    48    49 ar  
   104    49    50 ar  
   105    49   101 1   
   106    50    51 1   
   107    51    52 1   
   108    52   102 1   
   109    52   103 1   
   110    52   104 1   
@<TRIPOS>SUBSTRUCTURE
     1 R3B         1 TEMP              0 ****  ****    0 ROOT
