@<TRIPOS>MOLECULE
R3B
  105   110     1     0     0
SMALL
No Charge or Current Charge


@<TRIPOS>ATOM
      1 C3          26.2280     0.3210    -1.2210 c3         1 R3B       0.165600
      2 CBK         19.2340     3.9770    -0.3030 c6         1 R3B      -0.073900
      3 CBL         18.0600     4.6900     0.4100 c6         1 R3B      -0.072400
      4 CBM         16.8620     4.8950    -0.5470 c6         1 R3B      -0.075400
      5 CBN         16.4090     3.5500    -1.1620 c6         1 R3B      -0.072400
      6 CBO         17.5830     2.8380    -1.8780 c6         1 R3B      -0.073900
      7 CBJ         18.7940     2.6150    -0.9230 c6         1 R3B      -0.044700
      8 CBI         19.9810     1.8930    -1.6540 c3         1 R3B      -0.086400
      9 CBG         19.6220     0.4870    -2.2160 c          1 R3B       0.620100
     10 OBH         18.8370    -0.2360    -1.6130 o          1 R3B      -0.605100
     11 N           20.2320     0.0260    -3.4160 n          1 R3B      -0.395800
     12 CBE         21.5940     0.5270    -3.8110 c6         1 R3B       0.100000
     13 CBD         21.9880     0.2670    -5.2800 c6         1 R3B      -0.093400
     14 CBC         21.8080    -1.2060    -5.6630 c6         1 R3B      -0.077400
     15 CB          20.3520    -1.6180    -5.3820 c6         1 R3B      -0.074400
     16 CA          19.8950    -1.3690    -3.9120 c6         1 R3B       0.046700
     17 C           20.3940    -2.4980    -2.9610 c          1 R3B       0.581100
     18 O           19.6280    -3.1370    -2.2510 o          1 R3B      -0.486000
     19 OAX         21.7510    -2.4630    -2.7620 os         1 R3B      -0.438100
     20 CAK         22.3790    -3.3080    -1.7810 c3         1 R3B       0.223600
     21 CAL         22.0310    -2.7990    -0.3500 c3         1 R3B      -0.072400
     22 CAM         22.8480    -3.4780     0.7770 c3         1 R3B      -0.023100
     23 CAN         22.7870    -5.0020     0.7250 ca         1 R3B      -0.082300
     24 CAO         21.5570    -5.6690     0.8780 ca         1 R3B      -0.170000
     25 CAP         23.9590    -5.7490     0.5090 ca         1 R3B      -0.103000
     26 CAQ         23.9080    -7.1500     0.4380 ca         1 R3B      -0.170000
     27 CAR         22.6750    -7.8260     0.5860 ca         1 R3B       0.110100
     28 OAS         22.5870    -9.2070     0.5190 os         1 R3B      -0.321100
     29 CAT         23.7350   -10.0440     0.2930 c3         1 R3B       0.145900
     30 CAU         21.4920    -7.0790     0.8080 ca         1 R3B       0.113100
     31 OAV         20.2940    -7.7620     0.9480 os         1 R3B      -0.322100
     32 CAW         19.0410    -7.0870     1.1570 c3         1 R3B       0.145900
     33 CAJ         23.8790    -3.2410    -2.0710 ca         1 R3B      -0.079300
     34 CAI         24.5880    -2.0340    -1.8900 ca         1 R3B      -0.180000
     35 CAF         24.5670    -4.3800    -2.5340 ca         1 R3B      -0.115000
     36 CAE         25.9440    -4.3160    -2.8030 ca         1 R3B      -0.085000
     37 CAG         26.6430    -3.1120    -2.6110 ca         1 R3B      -0.139000
     38 CAH         25.9720    -1.9700    -2.1460 ca         1 R3B       0.130100
     39 OAH         26.7070    -0.8120    -1.9740 os         1 R3B      -0.352100
     40 C33         26.2580    -0.0370     0.2830 c3         1 R3B      -0.148400
     41 CBW         26.0300     1.1690     1.2280 c3         1 R3B       0.175600
     42 OBW         24.6510     1.2160     1.6580 os         1 R3B      -0.337100
     43 CBV         23.5540     1.4250     0.8240 ca         1 R3B       0.046100
     44 CBS         22.3550     0.7530     1.1580 ca         1 R3B       0.140600
     45 OBT         22.3480    -0.0690     2.2750 os         1 R3B      -0.330600
     46 CBU         21.1490    -0.6890     2.7720 c3         1 R3B       0.143900
     47 CBR         21.2040     0.9140     0.3600 ca         1 R3B      -0.212000
     48 CBP         21.2250     1.7480    -0.7680 ca         1 R3B      -0.017300
     49 CBQ         22.4010     2.4570    -1.0740 ca         1 R3B      -0.212000
     50 CBY         23.5650     2.3160    -0.2860 ca         1 R3B       0.140600
     51 OBZ         24.6990     3.0600    -0.5660 os         1 R3B      -0.330600
     52 CCA         24.7870     3.9700    -1.6760 c3         1 R3B       0.143900
     53 H31         26.8970     1.1760    -1.3900 h1         1 R3B       0.055700
     54 H32         25.2260     0.6260    -1.5430 h1         1 R3B       0.055700
     55 HCD         19.6390     4.6300    -1.0890 hc         1 R3B       0.041450
     56 HBL         18.3950     5.6610     0.7990 hc         1 R3B       0.040450
     57 HCE         17.7420     4.0990     1.2800 hc         1 R3B       0.040450
     58 HCF         17.1420     5.5930    -1.3480 hc         1 R3B       0.037700
     59 HBM         16.0260     5.3590    -0.0050 hc         1 R3B       0.037700
     60 HCG         15.5890     3.7230    -1.8720 hc         1 R3B       0.040450
     61 HBN         16.0070     2.8980    -0.3730 hc         1 R3B       0.040450
     62 HBO         17.2250     1.8800    -2.2790 hc         1 R3B       0.041450
     63 HCH         17.8980     3.4360    -2.7450 hc         1 R3B       0.041450
     64 HBJ         18.4740     1.9570    -0.1030 hc         1 R3B       0.070700
     65 HBI         20.2650     2.5190    -2.5050 hc         1 R3B       0.063700
     66 HBE         22.3400     0.0590    -3.1530 h1         1 R3B       0.052200
     67 HCI         21.6780     1.6080    -3.6600 h1         1 R3B       0.052200
     68 HCJ         23.0310     0.5720    -5.4430 hc         1 R3B       0.047700
     69 HBD         21.3730     0.8970    -5.9370 hc         1 R3B       0.047700
     70 HBC         22.0380    -1.3470    -6.7280 hc         1 R3B       0.052200
     71 HCK         22.5130    -1.8380    -5.1070 hc         1 R3B       0.052200
     72 HB1         19.6910    -1.0510    -6.0530 hc         1 R3B       0.061200
     73 HB2         20.2060    -2.6750    -5.6440 hc         1 R3B       0.061200
     74 HA          18.8010    -1.4750    -3.8990 h1         1 R3B       0.107700
     75 HAK         22.0380    -4.3470    -1.8900 h1         1 R3B       0.077700
     76 HAL         22.1870    -1.7170    -0.2970 hc         1 R3B       0.053700
     77 H35         20.9690    -2.9630    -0.1430 hc         1 R3B       0.053700
     78 HAM         23.8880    -3.1320     0.7250 hc         1 R3B       0.052200
     79 H36         22.4710    -3.1320     1.7470 hc         1 R3B       0.052200
     80 HAO         20.6630    -5.0770     1.0480 ha         1 R3B       0.116000
     81 HAP         24.9140    -5.2430     0.3870 ha         1 R3B       0.117000
     82 HAQ         24.8330    -7.6920     0.2670 ha         1 R3B       0.118000
     83 HAT         23.4380   -11.0990     0.2770 h1         1 R3B       0.038700
     84 H37         24.2060    -9.8080    -0.6700 h1         1 R3B       0.038700
     85 H38         24.4770    -9.9120     1.0920 h1         1 R3B       0.038700
     86 H4A         18.2250    -7.8170     1.2350 h1         1 R3B       0.038700
     87 HAW         19.0630    -6.5020     2.0860 h1         1 R3B       0.038700
     88 H39         18.8160    -6.4140     0.3200 h1         1 R3B       0.038700
     89 HAI         24.0450    -1.1570    -1.5570 ha         1 R3B       0.126000
     90 HAF         24.0350    -5.3180    -2.6820 ha         1 R3B       0.127000
     91 HAE         26.4700    -5.1990    -3.1600 ha         1 R3B       0.115000
     92 HAG         27.7090    -3.0650    -2.8180 ha         1 R3B       0.125000
     93 H33         25.5300    -0.8260     0.5050 hc         1 R3B       0.064200
     94 H34         27.2470    -0.4540     0.5080 hc         1 R3B       0.064200
     95 HBX         26.6580     1.0150     2.1150 h1         1 R3B       0.052200
     96 HBY         26.3730     2.1060     0.7750 h1         1 R3B       0.052200
     97 HBW         21.3700    -1.2730     3.6740 h1         1 R3B       0.043033
     98 HBU         20.3980     0.0680     3.0320 h1         1 R3B       0.043033
     99 HBV         20.7200    -1.3700     2.0260 h1         1 R3B       0.043033
    100 HBR         20.2860     0.3880     0.6000 ha         1 R3B       0.130000
    101 HBQ         22.3900     3.1280    -1.9270 ha         1 R3B       0.130000
    102 HCA         25.7790     4.4380    -1.7040 h1         1 R3B       0.043033
    103 HCB         24.6340     3.4420    -2.6260 h1         1 R3B       0.043033
    104 HCC         24.0380     4.7670    -1.5890 h1         1 R3B       0.043033
    105 HBK         20.0450     3.8250     0.4220 hc         1 R3B       0.041450
@<TRIPOS>BOND
     1     1    39 1   
     2     1    40 1   
     3     1    53 1   
     4     1    54 1   
     5     2     3 1   
     6     2     7 1   
     7     2    55 1   
     8     2   105 1   
     9     3     4 1   
    10     3    56 1   
    11     3    57 1   
    12     4     5 1   
    13     4    58 1   
    14     4    59 1   
    15     5     6 1   
    16     5    60 1   
    17     5    61 1   
    18     6     7 1   
    19     6    62 1   
    20     6    63 1   
    21     7     8 1   
    22     7    64 1   
    23     8     9 1   
    24     8    48 1   
    25     8    65 1   
    26     9    10 2   
    27     9    11 1   
    28    11    12 1   
    29    11    16 1   
    30    12    13 1   
    31    12    66 1   
    32    12    67 1   
    33    13    14 1   
    34    13    68 1   
    35    13    69 1   
    36    14    15 1   
    37    14    70 1   
    38    14    71 1   
    39    15    16 1   
    40    15    72 1   
    41    15    73 1   
    42    16    17 1   
    43    16    74 1   
    44    17    18 2   
    45    17    19 1   
    46    19    20 1   
    47    20    21 1   
    48    20    33 1   
    49    20    75 1   
    50    21    22 1   
    51    21    76 1   
    52    21    77 1   
    53    22    23 1   
    54    22    78 1   
    55    22    79 1   
    56    23    24 ar  
    57    23    25 ar  
    58    24    30 ar  
    59    24    80 1   
    60    25    26 ar  
    61    25    81 1   
    62    26    27 ar  
    63    26    82 1   
    64    27    28 1   
    65    27    30 ar  
    66    28    29 1   
    67    29    83 1   
    68    29    84 1   
    69    29    85 1   
    70    30    31 1   
    71    31    32 1   
    72    32    86 1   
    73    32    87 1   
    74    32    88 1   
    75    33    34 ar  
    76    33    35 ar  
    77    34    38 ar  
    78    34    89 1   
    79    35    36 ar  
    80    35    90 1   
    81    36    37 ar  
    82    36    91 1   
    83    37    38 ar  
    84    37    92 1   
    85    38    39 1   
    86    40    41 1   
    87    40    93 1   
    88    40    94 1   
    89    41    42 1   
    90    41    95 1   
    91    41    96 1   
    92    42    43 1   
    93    43    44 ar  
    94    43    50 ar  
    95    44    45 1   
    96    44    47 ar  
    97    45    46 1   
    98    46    97 1   
    99    46    98 1   
   100    46    99 1   
   101    47    48 ar  
   102    47   100 1   
   103    48    49 ar  
   104    49    50 ar  
   105    49   101 1   
   106    50    51 1   
   107    51    52 1   
   108    52   102 1   
   109    52   103 1   
   110    52   104 1   
@<TRIPOS>SUBSTRUCTURE
     1 R3B         1 TEMP              0 ****  ****    0 ROOT
