@<TRIPOS>MOLECULE
R3E
  113   118     1     0     0
SMALL
abcg2


@<TRIPOS>ATOM
      1 CAN          9.3780     3.9280     9.5380 c6         1 R3E      -0.073900
      2 CAO          8.0280     4.3910     9.0020 c6         1 R3E      -0.072400
      3 CAP          7.5850     5.6950     9.6550 c6         1 R3E      -0.075400
      4 CAQ          7.5830     5.5670    11.1740 c6         1 R3E      -0.072400
      5 CAR          8.9350     5.0960    11.7010 c6         1 R3E      -0.073900
      6 CAM          9.3590     3.7730    11.0610 c6         1 R3E      -0.046700
      7 CAL         10.7310     3.3200    11.5850 c3         1 R3E      -0.085400
      8 CAS         11.1050     1.9370    11.0480 c          1 R3E       0.621100
      9 OAT         10.2330     1.0980    10.8690 o          1 R3E      -0.607100
     10 N           12.4120     1.6620    10.8000 n          1 R3E      -0.394800
     11 CAV         13.5480     2.5050    11.1530 c6         1 R3E       0.103000
     12 CAW         14.5580     2.5910    10.0210 c6         1 R3E      -0.093400
     13 CAX         15.0030     1.2060     9.5800 c6         1 R3E      -0.077400
     14 CB          13.7850     0.3680     9.2210 c6         1 R3E      -0.073400
     15 CA          12.7610     0.3250    10.3510 c6         1 R3E       0.045700
     16 C           13.1980    -0.5810    11.4990 c          1 R3E       0.579100
     17 O           13.9000    -1.5480    11.3570 o          1 R3E      -0.485000
     18 OBC         12.6500    -0.2200    12.6480 os         1 R3E      -0.436100
     19 CBD         12.8720    -1.0330    13.8130 c3         1 R3E       0.223600
     20 CBS         11.7510    -0.6610    14.7740 c3         1 R3E      -0.074400
     21 CBT         11.7120    -1.5050    16.0460 c3         1 R3E      -0.024100
     22 CBU         11.4440    -2.9670    15.8050 ca         1 R3E      -0.109300
     23 CBV         10.2460    -3.3800    15.2180 ca         1 R3E      -0.093000
     24 CBW         12.3590    -3.9450    16.1610 ca         1 R3E      -0.076000
     25 CBX         12.1000    -5.2970    15.9490 ca         1 R3E      -0.191000
     26 CBY         10.9040    -5.6990    15.3670 ca         1 R3E       0.123100
     27 OBZ         10.5510    -6.9760    15.1270 os         1 R3E      -0.325100
     28 CCA         11.4430    -7.9980    15.5180 c3         1 R3E       0.144900
     29 CCB          9.9690    -4.7160    15.0020 ca         1 R3E       0.069100
     30 OCC          8.7770    -5.0910    14.4590 os         1 R3E      -0.347100
     31 CCD          8.8000    -5.2180    13.0450 c3         1 R3E       0.148900
     32 CBE         14.2370    -0.7680    14.3940 ca         1 R3E      -0.076300
     33 CBG         14.6340     0.5350    14.6630 ca         1 R3E      -0.134000
     34 CBF         15.0770    -1.8250    14.7250 ca         1 R3E      -0.120000
     35 CBR         16.2930    -1.5670    15.3390 ca         1 R3E      -0.081000
     36 CBQ         16.6920    -0.2680    15.6220 ca         1 R3E      -0.179000
     37 CBH         15.8570     0.7940    15.2760 ca         1 R3E       0.133100
     38 OBI         16.1490     2.0940    15.4870 os         1 R3E      -0.353100
     39 CBJ         17.1870     2.4330    16.4000 c3         1 R3E       0.197800
     40 CBK         16.9130     1.9800    17.8120 c2         1 R3E      -0.266200
     41 CBL         15.9350     2.4360    18.5910 c2         1 R3E      -0.214200
     42 CBM         14.9390     3.5040    18.2490 c3         1 R3E       0.186800
     43 OBN         13.6160     3.1310    18.5490 os         1 R3E      -0.433000
     44 CBO         13.1210     2.0930    17.7380 c3         1 R3E       0.124600
     45 CBP         11.6150     2.0410    17.8350 c3         1 R3E       0.157600
     46 OAF         10.9540     3.1600    17.2500 os         1 R3E      -0.316100
     47 CAE         10.9140     3.1780    15.8900 ca         1 R3E       0.024100
     48 CAC         11.7700     4.0190    15.1750 ca         1 R3E       0.153100
     49 OAB         12.6090     4.7700    15.9100 os         1 R3E      -0.322600
     50 CAA         13.6090     5.5100    15.2410 c3         1 R3E       0.143400
     51 CAD         11.7070     4.0580    13.7820 ca         1 R3E      -0.218500
     52 CAK         10.8000     3.2600    13.0990 ca         1 R3E      -0.009300
     53 CAJ          9.9390     2.4260    13.8040 ca         1 R3E      -0.218500
     54 CAG          9.9840     2.3950    15.1940 ca         1 R3E       0.153100
     55 OAH          9.1810     1.6330    15.9590 os         1 R3E      -0.322600
     56 CAI          8.1960     0.8400    15.3280 c3         1 R3E       0.143400
     57 HAP          9.6590     2.9900     9.0550 hc         1 R3E       0.041200
     58 HAO         10.1470     4.6620     9.2680 hc         1 R3E       0.041200
     59 HAR          8.0780     4.5070     7.9160 hc         1 R3E       0.040200
     60 HAQ          7.2790     3.6160     9.1970 hc         1 R3E       0.040200
     61 HAS          8.2700     6.4980     9.3590 hc         1 R3E       0.037700
     62 HAT          6.5950     5.9840     9.2960 hc         1 R3E       0.037700
     63 HAU          7.3150     6.5190    11.6370 hc         1 R3E       0.040200
     64 HAV          6.8140     4.8480    11.4740 hc         1 R3E       0.040200
     65 HAX          8.8900     4.9950    12.7870 hc         1 R3E       0.041200
     66 HAW          9.6960     5.8590    11.4910 hc         1 R3E       0.041200
     67 HAN          8.6100     3.0180    11.3190 hc         1 R3E       0.070700
     68 HAM         11.4460     4.0710    11.2440 hc         1 R3E       0.062700
     69 HAY         14.0340     2.1030    12.0490 h1         1 R3E       0.050200
     70 HAZ         13.2100     3.5010    11.4120 h1         1 R3E       0.050200
     71 HA1         15.4090     3.1850    10.3630 hc         1 R3E       0.048200
     72 HA0         14.1130     3.1270     9.1770 hc         1 R3E       0.048200
     73 HA3         15.5680     0.7260    10.3860 hc         1 R3E       0.051200
     74 HA2         15.6770     1.2720     8.7240 hc         1 R3E       0.051200
     75 HB1         13.2900     0.8010     8.3480 hc         1 R3E       0.061700
     76 HB2         14.0660    -0.6480     8.9480 hc         1 R3E       0.061700
     77 HA4         11.8500    -0.1410     9.9640 h1         1 R3E       0.108700
     78 HBD         12.7890    -2.0880    13.5390 h1         1 R3E       0.075700
     79 HBS         11.8500     0.3920    15.0480 hc         1 R3E       0.058200
     80 HB7         10.7990    -0.7560    14.2450 hc         1 R3E       0.058200
     81 HBT         12.6430    -1.3870    16.6070 hc         1 R3E       0.053200
     82 HB8         10.9240    -1.0930    16.6820 hc         1 R3E       0.053200
     83 HBV          9.4960    -2.6480    14.9350 ha         1 R3E       0.123000
     84 HBW         13.2960    -3.6620    16.6250 ha         1 R3E       0.113000
     85 HBX         12.8440    -6.0230    16.2470 ha         1 R3E       0.118000
     86 HCA         10.9670    -8.9410    15.2570 h1         1 R3E       0.040700
     87 HCB         12.4000    -7.9320    14.9930 h1         1 R3E       0.040700
     88 HCC         11.6320    -7.9870    16.5950 h1         1 R3E       0.040700
     89 HCD          7.7980    -5.5030    12.7300 h1         1 R3E       0.035033
     90 HCE          9.0630    -4.2720    12.5630 h1         1 R3E       0.035033
     91 HCF          9.5030    -5.9860    12.7130 h1         1 R3E       0.035033
     92 HBG         13.9880     1.3700    14.4160 ha         1 R3E       0.130000
     93 HBF         14.7780    -2.8440    14.5120 ha         1 R3E       0.123000
     94 HBR         16.9480    -2.3870    15.6030 ha         1 R3E       0.113000
     95 HBQ         17.6490    -0.1070    16.0980 ha         1 R3E       0.117000
     96 HBJ         18.1470     2.0350    16.0590 h1         1 R3E       0.055200
     97 HB3         17.2580     3.5190    16.3400 h1         1 R3E       0.055200
     98 HBK         17.5750     1.2220    18.2150 ha         1 R3E       0.176000
     99 HBL         15.8440     2.0210    19.5910 ha         1 R3E       0.180000
    100 HBM         15.1470     4.3880    18.8600 h1         1 R3E       0.053700
    101 HB4         15.0270     3.8080    17.2010 h1         1 R3E       0.053700
    102 HB5         13.5080     1.1150    18.0570 h1         1 R3E       0.032200
    103 HBO         13.4320     2.2190    16.6930 h1         1 R3E       0.032200
    104 HB6         11.3070     2.0250    18.8830 h1         1 R3E       0.058700
    105 HBP         11.2780     1.1040    17.3840 h1         1 R3E       0.058700
    106 HAC         14.2030     5.9920    16.0140 h1         1 R3E       0.042533
    107 HAA         14.2620     4.8660    14.6460 h1         1 R3E       0.042533
    108 HAB         13.1870     6.2820    14.5930 h1         1 R3E       0.042533
    109 HAD         12.3540     4.7210    13.2230 ha         1 R3E       0.127500
    110 HAL          9.2370     1.8050    13.2660 ha         1 R3E       0.127500
    111 HAK          7.6530     0.3350    16.1230 h1         1 R3E       0.042533
    112 HAI          7.4940     1.4450    14.7490 h1         1 R3E       0.042533
    113 HAJ          8.6360     0.0860    14.6700 h1         1 R3E       0.042533
@<TRIPOS>BOND
     1     1     2 1   
     2     1     6 1   
     3     1    57 1   
     4     1    58 1   
     5     2     3 1   
     6     2    59 1   
     7     2    60 1   
     8     3     4 1   
     9     3    61 1   
    10     3    62 1   
    11     4     5 1   
    12     4    63 1   
    13     4    64 1   
    14     5     6 1   
    15     5    65 1   
    16     5    66 1   
    17     6     7 1   
    18     6    67 1   
    19     7     8 1   
    20     7    52 1   
    21     7    68 1   
    22     8     9 2   
    23     8    10 1   
    24    10    11 1   
    25    10    15 1   
    26    11    12 1   
    27    11    69 1   
    28    11    70 1   
    29    12    13 1   
    30    12    71 1   
    31    12    72 1   
    32    13    14 1   
    33    13    73 1   
    34    13    74 1   
    35    14    15 1   
    36    14    75 1   
    37    14    76 1   
    38    15    16 1   
    39    15    77 1   
    40    16    17 2   
    41    16    18 1   
    42    18    19 1   
    43    19    20 1   
    44    19    32 1   
    45    19    78 1   
    46    20    21 1   
    47    20    79 1   
    48    20    80 1   
    49    21    22 1   
    50    21    81 1   
    51    21    82 1   
    52    22    23 ar  
    53    22    24 ar  
    54    23    29 ar  
    55    23    83 1   
    56    24    25 ar  
    57    24    84 1   
    58    25    26 ar  
    59    25    85 1   
    60    26    27 1   
    61    26    29 ar  
    62    27    28 1   
    63    28    86 1   
    64    28    87 1   
    65    28    88 1   
    66    29    30 1   
    67    30    31 1   
    68    31    89 1   
    69    31    90 1   
    70    31    91 1   
    71    32    33 ar  
    72    32    34 ar  
    73    33    37 ar  
    74    33    92 1   
    75    34    35 ar  
    76    34    93 1   
    77    35    36 ar  
    78    35    94 1   
    79    36    37 ar  
    80    36    95 1   
    81    37    38 1   
    82    38    39 1   
    83    39    40 1   
    84    39    96 1   
    85    39    97 1   
    86    40    41 2   
    87    40    98 1   
    88    41    42 1   
    89    41    99 1   
    90    42    43 1   
    91    42   100 1   
    92    42   101 1   
    93    43    44 1   
    94    44    45 1   
    95    44   102 1   
    96    44   103 1   
    97    45    46 1   
    98    45   104 1   
    99    45   105 1   
   100    46    47 1   
   101    47    48 ar  
   102    47    54 ar  
   103    48    49 1   
   104    48    51 ar  
   105    49    50 1   
   106    50   106 1   
   107    50   107 1   
   108    50   108 1   
   109    51    52 ar  
   110    51   109 1   
   111    52    53 ar  
   112    53    54 ar  
   113    53   110 1   
   114    54    55 1   
   115    55    56 1   
   116    56   111 1   
   117    56   112 1   
   118    56   113 1   
@<TRIPOS>SUBSTRUCTURE
     1 R3E         1 TEMP              0 ****  ****    0 ROOT
