@<TRIPOS>MOLECULE
R3E
  113   118     1     0     0
SMALL
No Charge or Current Charge


@<TRIPOS>ATOM
      1 CAN          8.9890     4.1410     9.4280 c6         1 R3E      -0.073900
      2 CAO          7.5830     4.5860     8.9560 c6         1 R3E      -0.072400
      3 CAP          7.1450     5.8930     9.6580 c6         1 R3E      -0.075400
      4 CAQ          7.1960     5.7390    11.1960 c6         1 R3E      -0.072400
      5 CAR          8.6000     5.2920    11.6710 c6         1 R3E      -0.073900
      6 CAM          9.0520     3.9710    10.9770 c6         1 R3E      -0.046700
      7 CAL         10.4800     3.5200    11.4500 c3         1 R3E      -0.085400
      8 CAS         10.9460     2.1580    10.8610 c          1 R3E       0.621100
      9 OAT         10.1300     1.2650    10.6630 o          1 R3E      -0.607100
     10 N           12.3260     1.9300    10.5850 n          1 R3E      -0.394800
     11 CAV         13.3900     2.7050    11.3080 c6         1 R3E       0.103000
     12 CAW         14.7760     2.6880    10.6290 c6         1 R3E      -0.093400
     13 CAX         15.2500     1.2590    10.3410 c6         1 R3E      -0.077400
     14 CB          14.1850     0.5350     9.4960 c6         1 R3E      -0.073400
     15 CA          12.7540     0.5520    10.1200 c6         1 R3E       0.045700
     16 C           12.5810    -0.5380    11.2200 c          1 R3E       0.579100
     17 O           11.6090    -1.2830    11.2550 o          1 R3E      -0.485000
     18 OBC         13.4240    -0.3610    12.2880 os         1 R3E      -0.436100
     19 CBD         13.2190    -1.1070    13.5000 c3         1 R3E       0.223600
     20 CBS         12.0150    -0.4920    14.2690 c3         1 R3E      -0.074400
     21 CBT         11.7190    -1.1860    15.6200 c3         1 R3E      -0.024100
     22 CBU         11.5040    -2.6910    15.4950 ca         1 R3E      -0.109300
     23 CBV         10.4760    -3.2010    14.6820 ca         1 R3E      -0.093000
     24 CBW         12.3330    -3.5840    16.1920 ca         1 R3E      -0.076000
     25 CBX         12.1460    -4.9700    16.0700 ca         1 R3E      -0.191000
     26 CBY         11.1190    -5.4940    15.2490 ca         1 R3E       0.123100
     27 OBZ         10.9450    -6.8640    15.1350 os         1 R3E      -0.325100
     28 CCA         11.7740    -7.8200    15.8200 c3         1 R3E       0.144900
     29 CCB         10.2680    -4.5850    14.5440 ca         1 R3E       0.069100
     30 OCC          9.2190    -4.9480    13.7070 os         1 R3E      -0.347100
     31 CCD          8.8330    -6.3040    13.4190 c3         1 R3E       0.148900
     32 CBE         14.5100    -1.0180    14.3110 ca         1 R3E      -0.076300
     33 CBG         15.0650     0.2370    14.6350 ca         1 R3E      -0.134000
     34 CBF         15.1520    -2.1890    14.7600 ca         1 R3E      -0.120000
     35 CBR         16.3220    -2.1040    15.5340 ca         1 R3E      -0.081000
     36 CBQ         16.8610    -0.8490    15.8640 ca         1 R3E      -0.179000
     37 CBH         16.2290     0.3300    15.4130 ca         1 R3E       0.133100
     38 OBI         16.7090     1.5920    15.6970 os         1 R3E      -0.353100
     39 CBJ         17.6560     1.8490    16.7500 c3         1 R3E       0.197800
     40 CBK         16.9970     1.5260    18.0800 c2         1 R3E      -0.266200
     41 CBL         15.9360     2.1510    18.6260 c2         1 R3E      -0.214200
     42 CBM         15.1660     3.3170    18.0330 c3         1 R3E       0.186800
     43 OBN         13.7630     3.1100    18.2690 os         1 R3E      -0.433000
     44 CBO         13.1510     2.0610    17.4880 c3         1 R3E       0.124600
     45 CBP         11.6300     2.0560    17.7810 c3         1 R3E       0.157600
     46 OAF         11.0130     3.2080    17.1650 os         1 R3E      -0.316100
     47 CAE         10.8700     3.2740    15.7890 ca         1 R3E       0.024100
     48 CAC         11.6060     4.2350    15.0650 ca         1 R3E       0.153100
     49 OAB         12.4610     5.0740    15.7590 os         1 R3E      -0.322600
     50 CAA         13.3150     6.0270    15.1030 c3         1 R3E       0.143400
     51 CAD         11.4690     4.3110    13.6630 ca         1 R3E      -0.218500
     52 CAK         10.6030     3.4390    12.9770 ca         1 R3E      -0.009300
     53 CAJ          9.8560     2.4970    13.7070 ca         1 R3E      -0.218500
     54 CAG          9.9770     2.4100    15.1110 ca         1 R3E       0.153100
     55 OAH          9.2280     1.5080    15.8480 os         1 R3E      -0.322600
     56 CAI          8.2740     0.6170    15.2440 c3         1 R3E       0.143400
     57 HAP          9.2510     3.2000     8.9260 hc         1 R3E       0.041200
     58 HAO          9.7340     4.8810     9.1040 hc         1 R3E       0.041200
     59 HAR          7.5840     4.7300     7.8670 hc         1 R3E       0.040200
     60 HAQ          6.8540     3.7910     9.1650 hc         1 R3E       0.040200
     61 HAS          7.7990     6.7190     9.3460 hc         1 R3E       0.037700
     62 HAT          6.1280     6.1630     9.3420 hc         1 R3E       0.037700
     63 HAU          6.9270     6.6910    11.6740 hc         1 R3E       0.040200
     64 HAV          6.4450     5.0050    11.5200 hc         1 R3E       0.040200
     65 HAX          8.5790     5.1660    12.7610 hc         1 R3E       0.041200
     66 HAW          9.3290     6.0890    11.4660 hc         1 R3E       0.041200
     67 HAN          8.3500     3.1770    11.2680 hc         1 R3E       0.070700
     68 HAM         11.1850     4.2840    11.1120 hc         1 R3E       0.062700
     69 HAY         13.4830     2.3010    12.3260 h1         1 R3E       0.050200
     70 HAZ         13.1170     3.7590    11.4120 h1         1 R3E       0.050200
     71 HA1         15.5070     3.2030    11.2670 hc         1 R3E       0.048200
     72 HA0         14.7270     3.2560     9.6900 hc         1 R3E       0.048200
     73 HA3         15.4480     0.7240    11.2790 hc         1 R3E       0.051200
     74 HA2         16.2040     1.2850     9.7960 hc         1 R3E       0.051200
     75 HB1         14.1380     1.0150     8.5090 hc         1 R3E       0.061700
     76 HB2         14.4980    -0.5010     9.3090 hc         1 R3E       0.061700
     77 HA4         12.0640     0.2340     9.3250 h1         1 R3E       0.108700
     78 HBD         13.0120    -2.1620    13.2720 h1         1 R3E       0.075700
     79 HBS         12.2060     0.5710    14.4510 hc         1 R3E       0.058200
     80 HB7         11.1130    -0.5370    13.6500 hc         1 R3E       0.058200
     81 HBT         12.5390    -0.9710    16.3160 hc         1 R3E       0.053200
     82 HB8         10.8260    -0.7330    16.0620 hc         1 R3E       0.053200
     83 HBV          9.8250    -2.5170    14.1440 ha         1 R3E       0.123000
     84 HBW         13.1300    -3.2070    16.8290 ha         1 R3E       0.113000
     85 HBX         12.8140    -5.6200    16.6250 ha         1 R3E       0.118000
     86 HCA         11.4530    -8.8410    15.5800 h1         1 R3E       0.040700
     87 HCB         12.8230    -7.7150    15.5170 h1         1 R3E       0.040700
     88 HCC         11.7040    -7.6900    16.9080 h1         1 R3E       0.040700
     89 HCD          7.9790    -6.3140    12.7310 h1         1 R3E       0.035033
     90 HCE          9.6540    -6.8530    12.9410 h1         1 R3E       0.035033
     91 HCF          8.5310    -6.8290    14.3340 h1         1 R3E       0.035033
     92 HBG         14.5880     1.1490    14.2900 ha         1 R3E       0.130000
     93 HBF         14.7420    -3.1660    14.5170 ha         1 R3E       0.123000
     94 HBR         16.8100    -3.0130    15.8790 ha         1 R3E       0.113000
     95 HBQ         17.7680    -0.8100    16.4590 ha         1 R3E       0.117000
     96 HBJ         18.5710     1.2590    16.6130 h1         1 R3E       0.055200
     97 HB3         17.9480     2.9070    16.7380 h1         1 R3E       0.055200
     98 HBK         17.4700     0.6970    18.6100 ha         1 R3E       0.176000
     99 HBL         15.5550     1.8290    19.5970 ha         1 R3E       0.180000
    100 HBM         15.4940     4.2450    18.5190 h1         1 R3E       0.053700
    101 HB4         15.3650     3.4220    16.9580 h1         1 R3E       0.053700
    102 HB5         13.5680     1.0840    17.7640 h1         1 R3E       0.032200
    103 HBO         13.3250     2.2110    16.4150 h1         1 R3E       0.032200
    104 HB6         11.4770     2.0770    18.8670 h1         1 R3E       0.058700
    105 HBP         11.1900     1.1260    17.4040 h1         1 R3E       0.058700
    106 HAC         13.9190     6.5660    15.8430 h1         1 R3E       0.042533
    107 HAA         13.9990     5.5230    14.4080 h1         1 R3E       0.042533
    108 HAB         12.7230     6.7630    14.5460 h1         1 R3E       0.042533
    109 HAD         12.0270     5.0480    13.0940 ha         1 R3E       0.127500
    110 HAL          9.1820     1.8400    13.1680 ha         1 R3E       0.127500
    111 HAK          7.7970    -0.0050    16.0120 h1         1 R3E       0.042533
    112 HAI          7.4870     1.1810    14.7260 h1         1 R3E       0.042533
    113 HAJ          8.7630    -0.0490    14.5230 h1         1 R3E       0.042533
@<TRIPOS>BOND
     1     1     2 1   
     2     1     6 1   
     3     1    57 1   
     4     1    58 1   
     5     2     3 1   
     6     2    59 1   
     7     2    60 1   
     8     3     4 1   
     9     3    61 1   
    10     3    62 1   
    11     4     5 1   
    12     4    63 1   
    13     4    64 1   
    14     5     6 1   
    15     5    65 1   
    16     5    66 1   
    17     6     7 1   
    18     6    67 1   
    19     7     8 1   
    20     7    52 1   
    21     7    68 1   
    22     8     9 2   
    23     8    10 1   
    24    10    11 1   
    25    10    15 1   
    26    11    12 1   
    27    11    69 1   
    28    11    70 1   
    29    12    13 1   
    30    12    71 1   
    31    12    72 1   
    32    13    14 1   
    33    13    73 1   
    34    13    74 1   
    35    14    15 1   
    36    14    75 1   
    37    14    76 1   
    38    15    16 1   
    39    15    77 1   
    40    16    17 2   
    41    16    18 1   
    42    18    19 1   
    43    19    20 1   
    44    19    32 1   
    45    19    78 1   
    46    20    21 1   
    47    20    79 1   
    48    20    80 1   
    49    21    22 1   
    50    21    81 1   
    51    21    82 1   
    52    22    23 ar  
    53    22    24 ar  
    54    23    29 ar  
    55    23    83 1   
    56    24    25 ar  
    57    24    84 1   
    58    25    26 ar  
    59    25    85 1   
    60    26    27 1   
    61    26    29 ar  
    62    27    28 1   
    63    28    86 1   
    64    28    87 1   
    65    28    88 1   
    66    29    30 1   
    67    30    31 1   
    68    31    89 1   
    69    31    90 1   
    70    31    91 1   
    71    32    33 ar  
    72    32    34 ar  
    73    33    37 ar  
    74    33    92 1   
    75    34    35 ar  
    76    34    93 1   
    77    35    36 ar  
    78    35    94 1   
    79    36    37 ar  
    80    36    95 1   
    81    37    38 1   
    82    38    39 1   
    83    39    40 1   
    84    39    96 1   
    85    39    97 1   
    86    40    41 2   
    87    40    98 1   
    88    41    42 1   
    89    41    99 1   
    90    42    43 1   
    91    42   100 1   
    92    42   101 1   
    93    43    44 1   
    94    44    45 1   
    95    44   102 1   
    96    44   103 1   
    97    45    46 1   
    98    45   104 1   
    99    45   105 1   
   100    46    47 1   
   101    47    48 ar  
   102    47    54 ar  
   103    48    49 1   
   104    48    51 ar  
   105    49    50 1   
   106    50   106 1   
   107    50   107 1   
   108    50   108 1   
   109    51    52 ar  
   110    51   109 1   
   111    52    53 ar  
   112    53    54 ar  
   113    53   110 1   
   114    54    55 1   
   115    55    56 1   
   116    56   111 1   
   117    56   112 1   
   118    56   113 1   
@<TRIPOS>SUBSTRUCTURE
     1 R3E         1 TEMP              0 ****  ****    0 ROOT
