@<TRIPOS>MOLECULE
R3F
  115   120     1     0     0
SMALL
No Charge or Current Charge


@<TRIPOS>ATOM
      1 O7P          9.0070    29.1730    -3.8390 o          1 R3F      -0.429000
      2 C7P          8.7860    30.1110    -4.5880 c          1 R3F       0.617700
      3 C1P          7.6550    30.0690    -5.5860 ca         1 R3F      -0.165600
      4 C2P          7.8520    29.6940    -6.9450 ca         1 R3F      -0.025300
      5 C4B          9.2280    29.2750    -7.5150 c6         1 R3F       0.117200
      6 C1C         10.1790    30.4600    -7.6640 ca         1 R3F      -0.205300
      7 C6C          9.8280    31.5390    -8.4950 ca         1 R3F      -0.034500
      8 C5C         10.6810    32.6480    -8.6020 ca         1 R3F      -0.219500
      9 C4C         11.8910    32.6930    -7.8910 ca         1 R3F       0.376000
     10 N1C         12.7320    33.8220    -7.9950 nh         1 R3F      -0.835900
     11 C13         13.4230    34.3350    -6.7850 c3         1 R3F       0.226300
     12 C14         13.4890    35.8690    -6.6840 c3         1 R3F      -0.113350
     13 C23         13.3260    34.1560    -9.3120 c3         1 R3F       0.226300
     14 C24         12.6510    35.3380   -10.0340 c3         1 R3F      -0.113350
     15 C3C         12.2510    31.6020    -7.0850 ca         1 R3F      -0.216500
     16 C2C         11.4050    30.4910    -6.9750 ca         1 R3F       0.197100
     17 O1B         11.8020    29.4440    -6.1790 os         1 R3F      -0.233200
     18 C1A         11.0900    28.2730    -6.0860 ca         1 R3F       0.197100
     19 C6A         11.6250    27.2240    -5.3270 ca         1 R3F      -0.216500
     20 C5A         10.9390    26.0060    -5.2130 ca         1 R3F       0.376000
     21 N1A         11.4810    24.9560    -4.4380 nh         1 R3F      -0.835900
     22 C11         12.0080    25.2130    -3.0800 c3         1 R3F       0.226300
     23 C12         13.5380    25.0840    -2.9790 c3         1 R3F      -0.113350
     24 C21         11.4260    23.5490    -4.8970 c3         1 R3F       0.226300
     25 C22         12.1390    23.3180    -6.2410 c3         1 R3F      -0.113350
     26 C4A          9.7110    25.8500    -5.8770 ca         1 R3F      -0.219500
     27 C3A          9.1590    26.9020    -6.6220 ca         1 R3F      -0.034500
     28 C2A          9.8460    28.1240    -6.7260 ca         1 R3F      -0.205300
     29 C3P          6.7370    29.6660    -7.8110 ca         1 R3F      -0.119000
     30 C4P          5.4510    29.9810    -7.3450 ca         1 R3F      -0.088000
     31 C5P          5.2580    30.3180    -5.9990 ca         1 R3F      -0.114000
     32 C6P          6.3530    30.3540    -5.1240 ca         1 R3F      -0.094000
     33 O1           9.5520    31.2550    -4.5440 os         1 R3F      -0.444100
     34 C2           9.1490    32.4710    -5.2230 c3         1 R3F       0.180600
     35 C3           8.1220    33.2480    -4.3650 c3         1 R3F       0.139600
     36 O4           8.7370    33.5960    -3.1110 os         1 R3F      -0.458000
     37 C5           7.8620    34.2520    -2.1750 c3         1 R3F       0.124600
     38 C6           8.5290    34.2760    -0.7740 c3         1 R3F       0.163600
     39 O7           8.3070    33.0160    -0.0950 os         1 R3F      -0.456000
     40 C8           9.1380    31.9060    -0.5040 c3         1 R3F       0.135600
     41 C9           8.5890    30.6200     0.1490 c3         1 R3F       0.081600
     42 N3T          7.4490    30.0300    -0.5760 na         1 R3F       0.118800
     43 C4T          7.4090    28.8100    -1.2010 cc         1 R3F      -0.165000
     44 C5T          6.1490    28.7630    -1.7330 cd         1 R3F       0.175300
     45 N1T          5.4740    29.9200    -1.3980 nd         1 R3F      -0.359000
     46 N2T          6.2600    30.6890    -0.6930 nc         1 R3F      -0.208800
     47 C1           5.5040    27.6620    -2.5500 c3         1 R3F       0.152300
     48 O1F          6.1650    26.4040    -2.3090 os         1 R3F      -0.471000
     49 C1F          7.2340    26.0400    -3.2140 c6         1 R3F       0.381300
     50 O5F          6.6670    25.7210    -4.5070 os         1 R3F      -0.474000
     51 C5F          5.7800    24.5760    -4.5080 c6         1 R3F       0.172300
     52 C6F          5.2050    24.4530    -5.9410 c3         1 R3F      -0.079100
     53 C4F          6.5120    23.2770    -4.0190 c6         1 R3F       0.121300
     54 O4F          7.5440    22.8320    -4.9170 oh         1 R3F      -0.713000
     55 C3F          7.1570    23.5460    -2.6270 c6         1 R3F       0.092300
     56 O3F          7.9320    22.4010    -2.2020 oh         1 R3F      -0.684000
     57 C2F          8.0570    24.8190    -2.6720 c6         1 R3F       0.161300
     58 O2F          8.6170    25.0450    -1.3600 oh         1 R3F      -0.693000
     59 H1           8.8870    31.5270    -9.0430 ha         1 R3F       0.107500
     60 H2          10.3880    33.4840    -9.2260 ha         1 R3F       0.116500
     61 H3          12.8990    33.9750    -5.8880 h1         1 R3F       0.047075
     62 H4          14.4440    33.9320    -6.7420 h1         1 R3F       0.047075
     63 H5          13.9260    36.1640    -5.7230 hc         1 R3F       0.040783
     64 H6          14.1140    36.2890    -7.4800 hc         1 R3F       0.040783
     65 H7          12.4860    36.3050    -6.7540 hc         1 R3F       0.040783
     66 H8          14.3940    34.3850    -9.1900 h1         1 R3F       0.047075
     67 H9          13.2750    33.2770    -9.9690 h1         1 R3F       0.047075
     68 H10         13.1600    35.5350   -10.9850 hc         1 R3F       0.040783
     69 H11         11.6010    35.1200   -10.2530 hc         1 R3F       0.040783
     70 H12         12.6960    36.2500    -9.4300 hc         1 R3F       0.040783
     71 H13         13.1920    31.6070    -6.5470 ha         1 R3F       0.129500
     72 H14         12.5810    27.3580    -4.8360 ha         1 R3F       0.129500
     73 H15         11.5460    24.5150    -2.3690 h1         1 R3F       0.047075
     74 H16         11.7190    26.2220    -2.7540 h1         1 R3F       0.047075
     75 H17         13.8700    25.3060    -1.9580 hc         1 R3F       0.040783
     76 H18         13.8620    24.0680    -3.2310 hc         1 R3F       0.040783
     77 H19         14.0340    25.7840    -3.6610 hc         1 R3F       0.040783
     78 H20         11.8940    22.8930    -4.1500 h1         1 R3F       0.047075
     79 H21         10.3820    23.2220    -4.9840 h1         1 R3F       0.047075
     80 H22         12.0960    22.2570    -6.5150 hc         1 R3F       0.040783
     81 H23         11.6640    23.8980    -7.0410 hc         1 R3F       0.040783
     82 H24         13.1920    23.6140    -6.1730 hc         1 R3F       0.040783
     83 H25          9.1620    24.9180    -5.8020 ha         1 R3F       0.116500
     84 H26          8.1950    26.7700    -7.1090 ha         1 R3F       0.107500
     85 H27          6.8620    29.3880    -8.8550 ha         1 R3F       0.115000
     86 H28          4.6030    29.9510    -8.0250 ha         1 R3F       0.117000
     87 H29          4.2600    30.5480    -5.6320 ha         1 R3F       0.119000
     88 H30          6.1910    30.6090    -4.0790 ha         1 R3F       0.121000
     89 H31          8.7210    32.2740    -6.2120 h1         1 R3F       0.068700
     90 H32         10.0230    33.1180    -5.3750 h1         1 R3F       0.068700
     91 H33          7.8170    34.1540    -4.9060 h1         1 R3F       0.033200
     92 H34          7.2280    32.6380    -4.2020 h1         1 R3F       0.033200
     93 H35          7.6690    35.2830    -2.5000 h1         1 R3F       0.036200
     94 H36          6.8970    33.7330    -2.1020 h1         1 R3F       0.036200
     95 H37          9.6000    34.5040    -0.8640 h1         1 R3F       0.053200
     96 H38          8.0660    35.0850    -0.1950 h1         1 R3F       0.053200
     97 H39          9.1490    31.7660    -1.5910 h1         1 R3F       0.049200
     98 H40         10.1710    32.0680    -0.1710 h1         1 R3F       0.049200
     99 H41          9.3920    29.8750     0.1800 h1         1 R3F       0.079200
    100 H42          8.2880    30.8280     1.1830 h1         1 R3F       0.079200
    101 H43          8.2330    28.1110    -1.2240 h4         1 R3F       0.189000
    102 H44          4.4510    27.5880    -2.2510 h1         1 R3F       0.046200
    103 H45          5.5270    27.9320    -3.6140 h1         1 R3F       0.046200
    104 H46          7.9270    26.8880    -3.3250 h2         1 R3F       0.108700
    105 H47          4.9370    24.7810    -3.8310 h1         1 R3F       0.052700
    106 H48          4.5140    23.6060    -6.0150 hc         1 R3F       0.046367
    107 H49          4.6530    25.3580    -6.2190 hc         1 R3F       0.046367
    108 H50          6.0000    24.3040    -6.6810 hc         1 R3F       0.046367
    109 H51          5.7590    22.4830    -3.9050 h1         1 R3F       0.034700
    110 H52          8.1620    22.3300    -4.3350 ho         1 R3F       0.508000
    111 H53          6.3420    23.7350    -1.9110 h1         1 R3F       0.071700
    112 H54          7.2980    21.7190    -1.8800 ho         1 R3F       0.448000
    113 H55          8.8710    24.6360    -3.3860 h1         1 R3F       0.071700
    114 H56          8.7920    24.1390    -1.0140 ho         1 R3F       0.504000
    115 H57          9.0700    28.8870    -8.5310 hc         1 R3F       0.059700
@<TRIPOS>BOND
     1     1     2 2   
     2     2     3 1   
     3     2    33 1   
     4     3     4 ar  
     5     3    32 ar  
     6     4     5 1   
     7     4    29 ar  
     8     5     6 1   
     9     5    28 1   
    10     5   115 1   
    11     6     7 ar  
    12     6    16 ar  
    13     7     8 ar  
    14     7    59 1   
    15     8     9 ar  
    16     8    60 1   
    17     9    10 1   
    18     9    15 ar  
    19    10    11 1   
    20    10    13 1   
    21    11    12 1   
    22    11    61 1   
    23    11    62 1   
    24    12    63 1   
    25    12    64 1   
    26    12    65 1   
    27    13    14 1   
    28    13    66 1   
    29    13    67 1   
    30    14    68 1   
    31    14    69 1   
    32    14    70 1   
    33    15    16 ar  
    34    15    71 1   
    35    16    17 1   
    36    17    18 1   
    37    18    19 ar  
    38    18    28 ar  
    39    19    20 ar  
    40    19    72 1   
    41    20    21 1   
    42    20    26 ar  
    43    21    22 1   
    44    21    24 1   
    45    22    23 1   
    46    22    73 1   
    47    22    74 1   
    48    23    75 1   
    49    23    76 1   
    50    23    77 1   
    51    24    25 1   
    52    24    78 1   
    53    24    79 1   
    54    25    80 1   
    55    25    81 1   
    56    25    82 1   
    57    26    27 ar  
    58    26    83 1   
    59    27    28 ar  
    60    27    84 1   
    61    29    30 ar  
    62    29    85 1   
    63    30    31 ar  
    64    30    86 1   
    65    31    32 ar  
    66    31    87 1   
    67    32    88 1   
    68    33    34 1   
    69    34    35 1   
    70    34    89 1   
    71    34    90 1   
    72    35    36 1   
    73    35    91 1   
    74    35    92 1   
    75    36    37 1   
    76    37    38 1   
    77    37    93 1   
    78    37    94 1   
    79    38    39 1   
    80    38    95 1   
    81    38    96 1   
    82    39    40 1   
    83    40    41 1   
    84    40    97 1   
    85    40    98 1   
    86    41    42 1   
    87    41    99 1   
    88    41   100 1   
    89    42    43 1   
    90    42    46 1   
    91    43    44 2   
    92    43   101 1   
    93    44    45 1   
    94    44    47 1   
    95    45    46 2   
    96    47    48 1   
    97    47   102 1   
    98    47   103 1   
    99    48    49 1   
   100    49    50 1   
   101    49    57 1   
   102    49   104 1   
   103    50    51 1   
   104    51    52 1   
   105    51    53 1   
   106    51   105 1   
   107    52   106 1   
   108    52   107 1   
   109    52   108 1   
   110    53    54 1   
   111    53    55 1   
   112    53   109 1   
   113    54   110 1   
   114    55    56 1   
   115    55    57 1   
   116    55   111 1   
   117    56   112 1   
   118    57    58 1   
   119    57   113 1   
   120    58   114 1   
@<TRIPOS>SUBSTRUCTURE
     1 R3F         1 TEMP              0 ****  ****    0 ROOT
