@<TRIPOS>MOLECULE
R3F
  115   120     1     0     0
SMALL
abcg2


@<TRIPOS>ATOM
      1 O7P          9.2390    29.5300    -4.5170 o          1 R3F      -0.429000
      2 C7P          8.6670    30.3320    -5.2220 c          1 R3F       0.617700
      3 C1P          7.6740    29.9170    -6.2660 ca         1 R3F      -0.165600
      4 C2P          8.0460    29.2810    -7.4590 ca         1 R3F      -0.025300
      5 C4B          9.4900    28.9600    -7.8370 c6         1 R3F       0.117200
      6 C1C         10.4490    30.0900    -7.5570 ca         1 R3F      -0.205300
      7 C6C         10.3100    31.3370    -8.1670 ca         1 R3F      -0.034500
      8 C5C         11.1310    32.4080    -7.8770 ca         1 R3F      -0.219500
      9 C4C         12.1690    32.2880    -6.9200 ca         1 R3F       0.376000
     10 N1C         12.9370    33.3780    -6.5680 nh         1 R3F      -0.835900
     11 C13         14.0280    33.2720    -5.6050 c3         1 R3F       0.226300
     12 C14         14.1350    34.4710    -4.6690 c3         1 R3F      -0.113350
     13 C23         12.9270    34.5750    -7.4070 c3         1 R3F       0.226300
     14 C24         11.8680    35.6030    -7.0130 c3         1 R3F      -0.113350
     15 C3C         12.3550    31.0150    -6.3520 ca         1 R3F      -0.216500
     16 C2C         11.5120    29.9590    -6.6710 ca         1 R3F       0.197100
     17 O1B         11.8110    28.7730    -6.0460 os         1 R3F      -0.233200
     18 C1A         11.0710    27.6510    -6.3390 ca         1 R3F       0.197100
     19 C6A         11.5200    26.4860    -5.7330 ca         1 R3F      -0.216500
     20 C5A         10.8510    25.2650    -5.9260 ca         1 R3F       0.376000
     21 N1A         11.2480    24.1160    -5.2790 nh         1 R3F      -0.835900
     22 C11         12.4390    24.1030    -4.4420 c3         1 R3F       0.226300
     23 C12         13.7600    24.0190    -5.2100 c3         1 R3F      -0.113350
     24 C21         10.6000    22.8400    -5.5570 c3         1 R3F       0.226300
     25 C22         11.0360    22.1680    -6.8600 c3         1 R3F      -0.113350
     26 C4A          9.7290    25.2840    -6.7870 ca         1 R3F      -0.219500
     27 C3A          9.3130    26.4630    -7.3770 ca         1 R3F      -0.034500
     28 C2A          9.9620    27.6800    -7.1750 ca         1 R3F      -0.205300
     29 C3P          7.0320    28.8980    -8.3370 ca         1 R3F      -0.119000
     30 C4P          5.6890    29.0930    -8.0370 ca         1 R3F      -0.088000
     31 C5P          5.3320    29.6950    -6.8370 ca         1 R3F      -0.114000
     32 C6P          6.3260    30.1140    -5.9640 ca         1 R3F      -0.094000
     33 O1           8.8550    31.6360    -4.9770 os         1 R3F      -0.444100
     34 C2           8.3310    32.6880    -5.8220 c3         1 R3F       0.180600
     35 C3           7.2020    33.4240    -5.1500 c3         1 R3F       0.139600
     36 O4           7.6680    34.0200    -3.9540 os         1 R3F      -0.458000
     37 C5           6.6400    34.7000    -3.2450 c3         1 R3F       0.124600
     38 C6           7.1370    35.1110    -1.8790 c3         1 R3F       0.163600
     39 O7           7.3040    34.0050    -0.9940 os         1 R3F      -0.456000
     40 C8           8.6020    33.4300    -1.0050 c3         1 R3F       0.135600
     41 C9           8.6010    32.2290    -0.0830 c3         1 R3F       0.081600
     42 N3T          7.7620    31.1450    -0.5820 na         1 R3F       0.118800
     43 C4T          7.9630    30.3710    -1.6660 cc         1 R3F      -0.165000
     44 C5T          6.8810    29.5170    -1.6930 cd         1 R3F       0.175300
     45 N1T          6.0860    29.8230    -0.6320 nd         1 R3F      -0.359000
     46 N2T          6.6190    30.8110     0.0360 nc         1 R3F      -0.208800
     47 C1           6.5770    28.4090    -2.6350 c3         1 R3F       0.152300
     48 O1F          7.4210    27.2850    -2.3400 os         1 R3F      -0.471000
     49 C1F          7.8020    26.5480    -3.4750 c6         1 R3F       0.381300
     50 O5F          6.7000    25.9460    -4.1230 os         1 R3F      -0.474000
     51 C5F          5.9760    25.0010    -3.3130 c6         1 R3F       0.172300
     52 C6F          4.7850    24.5400    -4.1270 c3         1 R3F      -0.079100
     53 C4F          6.8840    23.8640    -2.8570 c6         1 R3F       0.121300
     54 O4F          7.2400    23.0520    -3.9720 oh         1 R3F      -0.713000
     55 C3F          8.1380    24.4260    -2.1790 c6         1 R3F       0.092300
     56 O3F          9.1070    23.3900    -1.9760 oh         1 R3F      -0.684000
     57 C2F          8.8030    25.4790    -3.0510 c6         1 R3F       0.161300
     58 O2F          9.8990    26.1010    -2.3910 oh         1 R3F      -0.693000
     59 H1           9.5020    31.4790    -8.8760 ha         1 R3F       0.107500
     60 H2          10.9370    33.3510    -8.3630 ha         1 R3F       0.116500
     61 H3          13.8660    32.3910    -4.9920 h1         1 R3F       0.047075
     62 H4          14.9820    33.1270    -6.1310 h1         1 R3F       0.047075
     63 H5          14.9450    34.2980    -3.9590 hc         1 R3F       0.040783
     64 H6          14.3540    35.3980    -5.2010 hc         1 R3F       0.040783
     65 H7          13.2080    34.6080    -4.1080 hc         1 R3F       0.040783
     66 H8          13.9170    35.0280    -7.3450 h1         1 R3F       0.047075
     67 H9          12.7940    34.2810    -8.4510 h1         1 R3F       0.047075
     68 H10         11.8930    36.4500    -7.7030 hc         1 R3F       0.040783
     69 H11         10.8670    35.1700    -7.0420 hc         1 R3F       0.040783
     70 H12         12.0440    35.9750    -6.0040 hc         1 R3F       0.040783
     71 H13         13.1540    30.8060    -5.6590 ha         1 R3F       0.129500
     72 H14         12.3930    26.5620    -5.1030 ha         1 R3F       0.129500
     73 H15         12.3520    23.2470    -3.7720 h1         1 R3F       0.047075
     74 H16         12.4360    24.9900    -3.8060 h1         1 R3F       0.047075
     75 H17         14.6000    24.0620    -4.5140 hc         1 R3F       0.040783
     76 H18         13.8270    23.0850    -5.7690 hc         1 R3F       0.040783
     77 H19         13.8590    24.8460    -5.9140 hc         1 R3F       0.040783
     78 H20         10.8190    22.1830    -4.7150 h1         1 R3F       0.047075
     79 H21          9.5180    22.9820    -5.5590 h1         1 R3F       0.047075
     80 H22         10.4670    21.2480    -7.0130 hc         1 R3F       0.040783
     81 H23         10.8640    22.8200    -7.7170 hc         1 R3F       0.040783
     82 H24         12.0970    21.9130    -6.8330 hc         1 R3F       0.040783
     83 H25          9.1750    24.3810    -6.9910 ha         1 R3F       0.116500
     84 H26          8.4420    26.4370    -8.0210 ha         1 R3F       0.107500
     85 H27          7.3070    28.4320    -9.2760 ha         1 R3F       0.115000
     86 H28          4.9280    28.7770    -8.7380 ha         1 R3F       0.117000
     87 H29          4.2910    29.8480    -6.5840 ha         1 R3F       0.119000
     88 H30          6.0520    30.5900    -5.0320 ha         1 R3F       0.121000
     89 H31          8.0000    32.2820    -6.7750 h1         1 R3F       0.068700
     90 H32          9.1730    33.3540    -5.9970 h1         1 R3F       0.068700
     91 H33          6.8380    34.1900    -5.8490 h1         1 R3F       0.033200
     92 H34          6.3680    32.7500    -4.9300 h1         1 R3F       0.033200
     93 H35          6.3250    35.5930    -3.8010 h1         1 R3F       0.036200
     94 H36          5.7680    34.0440    -3.1340 h1         1 R3F       0.036200
     95 H37          8.0710    35.6750    -1.9640 h1         1 R3F       0.053200
     96 H38          6.3860    35.7610    -1.4250 h1         1 R3F       0.053200
     97 H39          8.8860    33.1350    -2.0170 h1         1 R3F       0.049200
     98 H40          9.3410    34.1510    -0.6360 h1         1 R3F       0.049200
     99 H41          9.6180    31.8550     0.0290 h1         1 R3F       0.079200
    100 H42          8.2130    32.4960     0.8990 h1         1 R3F       0.079200
    101 H43          8.8180    30.4710    -2.3110 h4         1 R3F       0.189000
    102 H44          5.5280    28.1210    -2.5350 h1         1 R3F       0.046200
    103 H45          6.7480    28.7210    -3.6640 h1         1 R3F       0.046200
    104 H46          8.2430    27.2150    -4.2190 h2         1 R3F       0.108700
    105 H47          5.6270    25.5110    -2.4090 h1         1 R3F       0.052700
    106 H48          4.1910    23.8280    -3.5510 hc         1 R3F       0.046367
    107 H49          4.1540    25.3930    -4.3790 hc         1 R3F       0.046367
    108 H50          5.1120    24.0580    -5.0470 hc         1 R3F       0.046367
    109 H51          6.3290    23.2630    -2.1240 h1         1 R3F       0.034700
    110 H52          8.0090    22.5310    -3.6980 ho         1 R3F       0.508000
    111 H53          7.8600    24.8720    -1.2210 h1         1 R3F       0.071700
    112 H54          8.8890    22.9090    -1.1680 ho         1 R3F       0.448000
    113 H55          9.1480    25.0010    -3.9690 h1         1 R3F       0.071700
    114 H56         10.5370    25.4070    -2.1860 ho         1 R3F       0.504000
    115 H57          9.4730    28.7910    -8.9180 hc         1 R3F       0.059700
@<TRIPOS>BOND
     1     1     2 2   
     2     2     3 1   
     3     2    33 1   
     4     3     4 ar  
     5     3    32 ar  
     6     4     5 1   
     7     4    29 ar  
     8     5     6 1   
     9     5    28 1   
    10     5   115 1   
    11     6     7 ar  
    12     6    16 ar  
    13     7     8 ar  
    14     7    59 1   
    15     8     9 ar  
    16     8    60 1   
    17     9    10 1   
    18     9    15 ar  
    19    10    11 1   
    20    10    13 1   
    21    11    12 1   
    22    11    61 1   
    23    11    62 1   
    24    12    63 1   
    25    12    64 1   
    26    12    65 1   
    27    13    14 1   
    28    13    66 1   
    29    13    67 1   
    30    14    68 1   
    31    14    69 1   
    32    14    70 1   
    33    15    16 ar  
    34    15    71 1   
    35    16    17 1   
    36    17    18 1   
    37    18    19 ar  
    38    18    28 ar  
    39    19    20 ar  
    40    19    72 1   
    41    20    21 1   
    42    20    26 ar  
    43    21    22 1   
    44    21    24 1   
    45    22    23 1   
    46    22    73 1   
    47    22    74 1   
    48    23    75 1   
    49    23    76 1   
    50    23    77 1   
    51    24    25 1   
    52    24    78 1   
    53    24    79 1   
    54    25    80 1   
    55    25    81 1   
    56    25    82 1   
    57    26    27 ar  
    58    26    83 1   
    59    27    28 ar  
    60    27    84 1   
    61    29    30 ar  
    62    29    85 1   
    63    30    31 ar  
    64    30    86 1   
    65    31    32 ar  
    66    31    87 1   
    67    32    88 1   
    68    33    34 1   
    69    34    35 1   
    70    34    89 1   
    71    34    90 1   
    72    35    36 1   
    73    35    91 1   
    74    35    92 1   
    75    36    37 1   
    76    37    38 1   
    77    37    93 1   
    78    37    94 1   
    79    38    39 1   
    80    38    95 1   
    81    38    96 1   
    82    39    40 1   
    83    40    41 1   
    84    40    97 1   
    85    40    98 1   
    86    41    42 1   
    87    41    99 1   
    88    41   100 1   
    89    42    43 1   
    90    42    46 1   
    91    43    44 2   
    92    43   101 1   
    93    44    45 1   
    94    44    47 1   
    95    45    46 2   
    96    47    48 1   
    97    47   102 1   
    98    47   103 1   
    99    48    49 1   
   100    49    50 1   
   101    49    57 1   
   102    49   104 1   
   103    50    51 1   
   104    51    52 1   
   105    51    53 1   
   106    51   105 1   
   107    52   106 1   
   108    52   107 1   
   109    52   108 1   
   110    53    54 1   
   111    53    55 1   
   112    53   109 1   
   113    54   110 1   
   114    55    56 1   
   115    55    57 1   
   116    55   111 1   
   117    56   112 1   
   118    57    58 1   
   119    57   113 1   
   120    58   114 1   
@<TRIPOS>SUBSTRUCTURE
     1 R3F         1 TEMP              0 ****  ****    0 ROOT
