@<TRIPOS>MOLECULE
R3G
  116   121     1     0     0
SMALL
No Charge or Current Charge


@<TRIPOS>ATOM
      1 O7P         33.3810    14.4980    25.2890 o          1 R3G      -0.474000
      2 C7P         33.6990    15.6190    24.9190 c          1 R3G       0.611700
      3 C1P         34.9480    15.9200    24.1090 ca         1 R3G      -0.136600
      4 C6P         35.5870    17.1650    24.3250 ca         1 R3G      -0.069000
      5 C5P         36.7740    17.4990    23.6560 ca         1 R3G      -0.133000
      6 C4P         37.3520    16.5910    22.7620 ca         1 R3G      -0.086000
      7 C3P         36.7350    15.3540    22.5300 ca         1 R3G      -0.114000
      8 C2P         35.5310    15.0030    23.1800 ca         1 R3G      -0.009300
      9 C2C         34.9150    13.6310    22.8230 c6         1 R3G       0.083200
     10 C2A         34.8220    13.4200    21.3090 ca         1 R3G      -0.187300
     11 C3A         34.2790    14.4280    20.4890 ca         1 R3G      -0.035500
     12 C4A         34.1730    14.2290    19.1030 ca         1 R3G      -0.220500
     13 C5A         34.5960    13.0220    18.5170 ca         1 R3G       0.380500
     14 N1A         34.4820    12.8140    17.1220 nh         1 R3G      -0.831400
     15 C21         34.7120    13.9470    16.1890 c3         1 R3G       0.229800
     16 C22         35.4170    13.5720    14.8730 c3         1 R3G      -0.112350
     17 C11         33.6550    11.6850    16.6320 c3         1 R3G       0.229800
     18 C12         34.4620    10.4760    16.1180 c3         1 R3G      -0.112350
     19 C6A         35.1190    12.0150    19.3390 ca         1 R3G      -0.212000
     20 C1A         35.2320    12.2090    20.7220 ca         1 R3G       0.174100
     21 O1B         35.7460    11.1880    21.4840 os         1 R3G      -0.249200
     22 C4B         36.0070    11.3180    22.8250 ca         1 R3G       0.174100
     23 C3C         36.6360    10.2520    23.4840 ca         1 R3G      -0.212000
     24 C4C         36.9330    10.3280    24.8550 ca         1 R3G       0.380500
     25 N1C         37.5570     9.2470    25.5280 nh         1 R3G      -0.831400
     26 C23         38.5530     8.3840    24.8480 c3         1 R3G       0.229800
     27 C24         38.0000     7.0140    24.4130 c3         1 R3G      -0.112350
     28 C13         37.2070     8.9160    26.9290 c3         1 R3G       0.229800
     29 C14         38.2650     9.3510    27.9600 c3         1 R3G      -0.112350
     30 C5C         36.5990    11.5030    25.5500 ca         1 R3G      -0.220500
     31 C6C         35.9710    12.5740    24.8970 ca         1 R3G      -0.035500
     32 C1C         35.6570    12.4860    23.5270 ca         1 R3G      -0.187300
     33 O1          32.9650    16.7440    25.2140 os         1 R3G      -0.446100
     34 C2          31.8950    16.6450    26.1850 c3         1 R3G       0.149600
     35 C3          32.4640    16.8820    27.6110 c3         1 R3G       0.144600
     36 O4          33.4000    15.8390    27.9470 os         1 R3G      -0.451000
     37 C5          34.0010    15.9590    29.2510 c3         1 R3G       0.163600
     38 C6          35.0690    14.8500    29.4140 c3         1 R3G       0.158600
     39 O7          34.4110    13.5710    29.5150 os         1 R3G      -0.458000
     40 C8          35.3000    12.4450    29.6310 c3         1 R3G       0.139600
     41 C9          34.4560    11.1530    29.6290 c3         1 R3G       0.086600
     42 N3T         33.8840    10.7840    28.3180 na         1 R3G       0.107800
     43 N2T         33.6360     9.4750    28.0200 nc         1 R3G      -0.231800
     44 N1T         33.1490     9.4510    26.8090 nd         1 R3G      -0.346000
     45 C5T         33.0710    10.7430    26.3270 cd         1 R3G       0.185300
     46 C4T         33.5260    11.6090    27.2790 cc         1 R3G      -0.144000
     47 C1          32.5590    11.0790    24.9480 c3         1 R3G       0.151300
     48 O1M         31.2290    11.6270    25.0450 os         1 R3G      -0.472000
     49 C1M         30.7150    12.2510    23.8480 c6         1 R3G       0.388300
     50 C2M         29.3220    12.9380    24.0830 c6         1 R3G       0.133300
     51 O2M         29.3250    13.9180    25.1430 oh         1 R3G      -0.699000
     52 C3M         28.2510    11.8560    24.3960 c6         1 R3G       0.095300
     53 O3M         26.9550    12.4630    24.5780 oh         1 R3G      -0.682000
     54 C4M         28.2070    10.8000    23.2540 c6         1 R3G       0.149300
     55 O4M         27.2190     9.7900    23.5660 oh         1 R3G      -0.723000
     56 C5M         29.6390    10.1950    23.0660 c6         1 R3G       0.173300
     57 O5M         30.6020    11.2550    22.8040 os         1 R3G      -0.471000
     58 C6M         29.7210     9.1680    21.8880 c3         1 R3G       0.170600
     59 O6M         29.3870     9.7300    20.6010 oh         1 R3G      -0.721000
     60 H1          35.1740    17.8800    25.0330 ha         1 R3G       0.128000
     61 H2          37.2510    18.4590    23.8400 ha         1 R3G       0.116000
     62 H3          38.2770    16.8440    22.2470 ha         1 R3G       0.116000
     63 H4          37.1950    14.6590    21.8320 ha         1 R3G       0.132000
     64 H5          33.9370    15.3650    20.9230 ha         1 R3G       0.107000
     65 H7          33.7430    15.0140    18.4900 ha         1 R3G       0.109500
     66 H8          35.3380    14.7020    16.6840 h1         1 R3G       0.043825
     67 H9          33.7540    14.4300    15.9510 h1         1 R3G       0.043825
     68 H10         35.6310    14.4760    14.2910 hc         1 R3G       0.041117
     69 H11         36.3660    13.0610    15.0740 hc         1 R3G       0.041117
     70 H12         34.7860    12.9190    14.2590 hc         1 R3G       0.041117
     71 H13         32.9930    12.0320    15.8260 h1         1 R3G       0.043825
     72 H14         32.9950    11.3380    17.4390 h1         1 R3G       0.043825
     73 H15         33.7800     9.6920    15.7690 hc         1 R3G       0.041117
     74 H16         35.1100    10.7570    15.2810 hc         1 R3G       0.041117
     75 H17         35.0870    10.0510    16.9100 hc         1 R3G       0.041117
     76 H18         35.4510    11.0790    18.9080 ha         1 R3G       0.128500
     77 H19         36.8780     9.3610    22.9180 ha         1 R3G       0.128500
     78 H20         38.9500     8.9000    23.9640 h1         1 R3G       0.043825
     79 H21         39.4120     8.2180    25.5120 h1         1 R3G       0.043825
     80 H22         38.7720     6.4490    23.8780 hc         1 R3G       0.041117
     81 H23         37.6880     6.4230    25.2810 hc         1 R3G       0.041117
     82 H24         37.1380     7.1320    23.7460 hc         1 R3G       0.041117
     83 H25         36.2520     9.3880    27.1920 h1         1 R3G       0.043825
     84 H26         37.0460     7.8340    27.0280 h1         1 R3G       0.043825
     85 H27         37.9220     9.1170    28.9740 hc         1 R3G       0.041117
     86 H28         39.2130     8.8280    27.7910 hc         1 R3G       0.041117
     87 H29         38.4500    10.4300    27.9010 hc         1 R3G       0.041117
     88 H30         36.8300    11.6000    26.6040 ha         1 R3G       0.109500
     89 H31         35.7300    13.4660    25.4670 ha         1 R3G       0.107000
     90 H32         31.1490    17.4260    25.9910 h1         1 R3G       0.069700
     91 H33         31.3740    15.6800    26.1350 h1         1 R3G       0.069700
     92 H34         32.9520    17.8660    27.6430 h1         1 R3G       0.038700
     93 H35         31.6310    16.8940    28.3260 h1         1 R3G       0.038700
     94 H36         34.4910    16.9350    29.3570 h1         1 R3G       0.035200
     95 H37         33.2470    15.8660    30.0430 h1         1 R3G       0.035200
     96 H38         35.7520    14.8740    28.5550 h1         1 R3G       0.035700
     97 H39         35.6540    15.0500    30.3210 h1         1 R3G       0.035700
     98 H40         35.8640    12.5030    30.5700 h1         1 R3G       0.040700
     99 H41         36.0180    12.4160    28.8000 h1         1 R3G       0.040700
    100 H42         33.6370    11.2540    30.3510 h1         1 R3G       0.076200
    101 H43         35.0940    10.3260    29.9650 h1         1 R3G       0.076200
    102 H45         33.6170    12.6860    27.2870 h4         1 R3G       0.194000
    103 H47         32.5680    10.1770    24.3230 h1         1 R3G       0.054200
    104 H48         33.2420    11.8070    24.4980 h1         1 R3G       0.054200
    105 H49         31.4220    13.0310    23.5240 h2         1 R3G       0.094700
    106 H50         29.0400    13.4280    23.1390 h1         1 R3G       0.055700
    107 H51         28.3820    13.9570    25.4320 ho         1 R3G       0.494000
    108 H52         28.5500    11.3360    25.3190 h1         1 R3G       0.075700
    109 H53         26.3130    11.7200    24.4970 ho         1 R3G       0.447000
    110 H54         27.9320    11.3180    22.3210 h1         1 R3G       0.068700
    111 H55         26.9620     9.3650    22.7140 ho         1 R3G       0.515000
    112 H56         29.9310     9.6690    23.9870 h1         1 R3G       0.068700
    113 H57         29.0580     8.3220    22.1160 h1         1 R3G       0.038200
    114 H58         30.7450     8.7700    21.8680 h1         1 R3G       0.038200
    115 H59         29.6170     9.0540    19.9220 ho         1 R3G       0.498000
    116 H60         33.8710    13.5950    23.1480 hc         1 R3G       0.101700
@<TRIPOS>BOND
     1     1     2 2   
     2     2     3 1   
     3     2    33 1   
     4     3     4 ar  
     5     3     8 ar  
     6     4     5 ar  
     7     4    60 1   
     8     5     6 ar  
     9     5    61 1   
    10     6     7 ar  
    11     6    62 1   
    12     7     8 ar  
    13     7    63 1   
    14     8     9 1   
    15     9    10 1   
    16     9    32 1   
    17     9   116 1   
    18    10    11 ar  
    19    10    20 ar  
    20    11    12 ar  
    21    11    64 1   
    22    12    13 ar  
    23    12    65 1   
    24    13    14 1   
    25    13    19 ar  
    26    14    15 1   
    27    14    17 1   
    28    15    16 1   
    29    15    66 1   
    30    15    67 1   
    31    16    68 1   
    32    16    69 1   
    33    16    70 1   
    34    17    18 1   
    35    17    71 1   
    36    17    72 1   
    37    18    73 1   
    38    18    74 1   
    39    18    75 1   
    40    19    20 ar  
    41    19    76 1   
    42    20    21 1   
    43    21    22 1   
    44    22    23 ar  
    45    22    32 ar  
    46    23    24 ar  
    47    23    77 1   
    48    24    25 1   
    49    24    30 ar  
    50    25    26 1   
    51    25    28 1   
    52    26    27 1   
    53    26    78 1   
    54    26    79 1   
    55    27    80 1   
    56    27    81 1   
    57    27    82 1   
    58    28    29 1   
    59    28    83 1   
    60    28    84 1   
    61    29    85 1   
    62    29    86 1   
    63    29    87 1   
    64    30    31 ar  
    65    30    88 1   
    66    31    32 ar  
    67    31    89 1   
    68    33    34 1   
    69    34    35 1   
    70    34    90 1   
    71    34    91 1   
    72    35    36 1   
    73    35    92 1   
    74    35    93 1   
    75    36    37 1   
    76    37    38 1   
    77    37    94 1   
    78    37    95 1   
    79    38    39 1   
    80    38    96 1   
    81    38    97 1   
    82    39    40 1   
    83    40    41 1   
    84    40    98 1   
    85    40    99 1   
    86    41    42 1   
    87    41   100 1   
    88    41   101 1   
    89    42    43 1   
    90    42    46 1   
    91    43    44 2   
    92    44    45 1   
    93    45    46 2   
    94    45    47 1   
    95    46   102 1   
    96    47    48 1   
    97    47   103 1   
    98    47   104 1   
    99    48    49 1   
   100    49    50 1   
   101    49    57 1   
   102    49   105 1   
   103    50    51 1   
   104    50    52 1   
   105    50   106 1   
   106    51   107 1   
   107    52    53 1   
   108    52    54 1   
   109    52   108 1   
   110    53   109 1   
   111    54    55 1   
   112    54    56 1   
   113    54   110 1   
   114    55   111 1   
   115    56    57 1   
   116    56    58 1   
   117    56   112 1   
   118    58    59 1   
   119    58   113 1   
   120    58   114 1   
   121    59   115 1   
@<TRIPOS>SUBSTRUCTURE
     1 R3G         1 TEMP              0 ****  ****    0 ROOT
