@<TRIPOS>MOLECULE
R3G
  116   121     1     0     0
SMALL
abcg2


@<TRIPOS>ATOM
      1 O7P         32.9840    14.5820    24.4920 o          1 R3G      -0.474000
      2 C7P         33.5760    15.6350    24.6040 c          1 R3G       0.611700
      3 C1P         35.0380    15.8550    24.3780 ca         1 R3G      -0.136600
      4 C6P         35.5940    17.0740    24.7990 ca         1 R3G      -0.069000
      5 C5P         36.9350    17.3570    24.6070 ca         1 R3G      -0.133000
      6 C4P         37.7480    16.4230    23.9700 ca         1 R3G      -0.086000
      7 C3P         37.2100    15.2150    23.5560 ca         1 R3G      -0.114000
      8 C2P         35.8660    14.8980    23.7590 ca         1 R3G      -0.009300
      9 C2C         35.3820    13.5430    23.2880 c6         1 R3G       0.083200
     10 C2A         35.2710    13.4290    21.7810 ca         1 R3G      -0.187300
     11 C3A         34.9690    14.4950    20.9390 ca         1 R3G      -0.035500
     12 C4A         34.7090    14.3290    19.5870 ca         1 R3G      -0.220500
     13 C5A         34.7320    13.0440    18.9970 ca         1 R3G       0.380500
     14 N1A         34.4500    12.8550    17.6620 nh         1 R3G      -0.831400
     15 C21         34.1330    14.0290    16.8450 c3         1 R3G       0.229800
     16 C22         33.9770    13.7680    15.3550 c3         1 R3G      -0.112350
     17 C11         34.3270    11.5060    17.1250 c3         1 R3G       0.229800
     18 C12         35.6560    10.8880    16.6900 c3         1 R3G      -0.112350
     19 C6A         35.0570    11.9640    19.8430 ca         1 R3G      -0.212000
     20 C1A         35.3140    12.1690    21.1880 ca         1 R3G       0.174100
     21 O1B         35.5980    11.0300    21.9110 os         1 R3G      -0.249200
     22 C4B         36.1600    11.1620    23.1660 ca         1 R3G       0.174100
     23 C3C         36.6680     9.9910    23.7090 ca         1 R3G      -0.212000
     24 C4C         37.1900     9.9700    25.0160 ca         1 R3G       0.380500
     25 N1C         37.5680     8.8020    25.6480 nh         1 R3G      -0.831400
     26 C23         37.7250     7.5370    24.9380 c3         1 R3G       0.229800
     27 C24         36.9580     6.3790    25.5740 c3         1 R3G      -0.112350
     28 C13         38.1710     8.8560    26.9760 c3         1 R3G       0.229800
     29 C14         39.6360     9.2930    26.9800 c3         1 R3G      -0.112350
     30 C5C         37.2510    11.2130    25.6860 ca         1 R3G      -0.220500
     31 C6C         36.7480    12.3630    25.1060 ca         1 R3G      -0.035500
     32 C1C         36.1680    12.3760    23.8410 ca         1 R3G      -0.187300
     33 O1          32.9360    16.7770    24.9150 os         1 R3G      -0.446100
     34 C2          31.5490    16.6550    25.2750 c3         1 R3G       0.149600
     35 C3          31.3760    16.3060    26.7670 c3         1 R3G       0.144600
     36 O4          32.4760    15.5470    27.2380 os         1 R3G      -0.451000
     37 C5          32.9930    15.9540    28.4960 c3         1 R3G       0.163600
     38 C6          34.3070    15.2520    28.7250 c3         1 R3G       0.158600
     39 O7          34.0750    13.8550    28.8360 os         1 R3G      -0.458000
     40 C8          35.2560    13.0710    28.7800 c3         1 R3G       0.139600
     41 C9          34.8580    11.6130    28.7650 c3         1 R3G       0.086600
     42 N3T         34.2990    11.1860    27.4830 na         1 R3G       0.107800
     43 N2T         34.3620     9.8920    27.1300 nc         1 R3G      -0.231800
     44 N1T         33.7720     9.7740    25.9710 nd         1 R3G      -0.346000
     45 C5T         33.3360    10.9950    25.5640 cd         1 R3G       0.185300
     46 C4T         33.6700    11.9100    26.5380 cc         1 R3G      -0.144000
     47 C1          32.6180    11.2190    24.2840 c3         1 R3G       0.151300
     48 O1M         31.2420    11.5130    24.5750 os         1 R3G      -0.472000
     49 C1M         30.5780    12.2140    23.5630 c6         1 R3G       0.388300
     50 C2M         29.2790    12.7840    24.1250 c6         1 R3G       0.133300
     51 O2M         29.5790    13.6350    25.2240 oh         1 R3G      -0.699000
     52 C3M         28.3370    11.6460    24.5030 c6         1 R3G       0.095300
     53 O3M         27.0580    12.1420    24.9100 oh         1 R3G      -0.682000
     54 C4M         28.1110    10.7400    23.3020 c6         1 R3G       0.149300
     55 O4M         27.3570     9.5880    23.6680 oh         1 R3G      -0.723000
     56 C5M         29.4490    10.2670    22.7330 c6         1 R3G       0.173300
     57 O5M         30.2860    11.3950    22.4420 os         1 R3G      -0.471000
     58 C6M         29.3190     9.4520    21.4660 c3         1 R3G       0.170600
     59 O6M         28.6090    10.1980    20.4780 oh         1 R3G      -0.721000
     60 H1          34.9600    17.7990    25.2870 ha         1 R3G       0.128000
     61 H2          37.3420    18.2990    24.9480 ha         1 R3G       0.116000
     62 H3          38.7970    16.6340    23.8030 ha         1 R3G       0.116000
     63 H4          37.8430    14.4830    23.0700 ha         1 R3G       0.132000
     64 H5          34.9160    15.4930    21.3560 ha         1 R3G       0.107000
     65 H7          34.4710    15.2010    18.9990 ha         1 R3G       0.109500
     66 H8          34.9340    14.7620    16.9780 h1         1 R3G       0.043825
     67 H9          33.2150    14.5030    17.2190 h1         1 R3G       0.043825
     68 H10         33.8400    14.7290    14.8560 hc         1 R3G       0.041117
     69 H11         34.8610    13.2920    14.9300 hc         1 R3G       0.041117
     70 H12         33.1080    13.1520    15.1250 hc         1 R3G       0.041117
     71 H13         33.6460    11.5310    16.2790 h1         1 R3G       0.043825
     72 H14         33.8470    10.8710    17.8730 h1         1 R3G       0.043825
     73 H15         35.4950     9.8720    16.3210 hc         1 R3G       0.041117
     74 H16         36.1090    11.4750    15.8890 hc         1 R3G       0.041117
     75 H17         36.3640    10.8420    17.5190 hc         1 R3G       0.041117
     76 H18         35.1170    10.9500    19.4800 ha         1 R3G       0.128500
     77 H19         36.5950     9.1040    23.1010 ha         1 R3G       0.128500
     78 H20         37.3640     7.6520    23.9230 h1         1 R3G       0.043825
     79 H21         38.7900     7.2850    24.8590 h1         1 R3G       0.043825
     80 H22         37.0790     5.4850    24.9590 hc         1 R3G       0.041117
     81 H23         37.3130     6.1400    26.5760 hc         1 R3G       0.041117
     82 H24         35.8930     6.6150    25.6330 hc         1 R3G       0.041117
     83 H25         37.5690     9.5060    27.6140 h1         1 R3G       0.043825
     84 H26         38.0970     7.8610    27.4100 h1         1 R3G       0.043825
     85 H27         40.0330     9.2660    27.9980 hc         1 R3G       0.041117
     86 H28         40.2380     8.6220    26.3640 hc         1 R3G       0.041117
     87 H29         39.7550    10.3060    26.5960 hc         1 R3G       0.041117
     88 H30         37.6660    11.2870    26.6780 ha         1 R3G       0.109500
     89 H31         36.7970    13.2850    25.6680 ha         1 R3G       0.107000
     90 H32         31.1240    17.6370    25.0770 h1         1 R3G       0.069700
     91 H33         31.0700    15.9150    24.6400 h1         1 R3G       0.069700
     92 H34         31.2700    17.2230    27.3510 h1         1 R3G       0.038700
     93 H35         30.4550    15.7240    26.8710 h1         1 R3G       0.038700
     94 H36         33.1680    17.0360    28.5050 h1         1 R3G       0.035200
     95 H37         32.2870    15.7120    29.2990 h1         1 R3G       0.035200
     96 H38         34.9830    15.4590    27.8890 h1         1 R3G       0.035700
     97 H39         34.7690    15.6340    29.6440 h1         1 R3G       0.035700
     98 H40         35.8840    13.2520    29.6600 h1         1 R3G       0.040700
     99 H41         35.8380    13.3260    27.8880 h1         1 R3G       0.040700
    100 H42         34.1160    11.4330    29.5450 h1         1 R3G       0.076200
    101 H43         35.7240    10.9820    28.9570 h1         1 R3G       0.076200
    102 H45         33.5180    12.9710    26.6170 h4         1 R3G       0.194000
    103 H47         32.7000    10.3330    23.6490 h1         1 R3G       0.054200
    104 H48         33.0440    12.0690    23.7500 h1         1 R3G       0.054200
    105 H49         31.2160    13.0120    23.1740 h2         1 R3G       0.094700
    106 H50         28.8160    13.3640    23.3190 h1         1 R3G       0.055700
    107 H51         28.7650    14.0840    25.4840 ho         1 R3G       0.494000
    108 H52         28.7800    11.0600    25.3130 h1         1 R3G       0.075700
    109 H53         27.0740    12.3090    25.8600 ho         1 R3G       0.447000
    110 H54         27.5770    11.3080    22.5330 h1         1 R3G       0.068700
    111 H55         26.5440     9.9030    24.0850 ho         1 R3G       0.515000
    112 H56         29.9370     9.6310    23.4800 h1         1 R3G       0.068700
    113 H57         28.7920     8.5240    21.7070 h1         1 R3G       0.038200
    114 H58         30.3240     9.2010    21.1140 h1         1 R3G       0.038200
    115 H59         28.5610     9.6630    19.6770 ho         1 R3G       0.498000
    116 H60         34.3740    13.4310    23.6730 hc         1 R3G       0.101700
@<TRIPOS>BOND
     1     1     2 2   
     2     2     3 1   
     3     2    33 1   
     4     3     4 ar  
     5     3     8 ar  
     6     4     5 ar  
     7     4    60 1   
     8     5     6 ar  
     9     5    61 1   
    10     6     7 ar  
    11     6    62 1   
    12     7     8 ar  
    13     7    63 1   
    14     8     9 1   
    15     9    10 1   
    16     9    32 1   
    17     9   116 1   
    18    10    11 ar  
    19    10    20 ar  
    20    11    12 ar  
    21    11    64 1   
    22    12    13 ar  
    23    12    65 1   
    24    13    14 1   
    25    13    19 ar  
    26    14    15 1   
    27    14    17 1   
    28    15    16 1   
    29    15    66 1   
    30    15    67 1   
    31    16    68 1   
    32    16    69 1   
    33    16    70 1   
    34    17    18 1   
    35    17    71 1   
    36    17    72 1   
    37    18    73 1   
    38    18    74 1   
    39    18    75 1   
    40    19    20 ar  
    41    19    76 1   
    42    20    21 1   
    43    21    22 1   
    44    22    23 ar  
    45    22    32 ar  
    46    23    24 ar  
    47    23    77 1   
    48    24    25 1   
    49    24    30 ar  
    50    25    26 1   
    51    25    28 1   
    52    26    27 1   
    53    26    78 1   
    54    26    79 1   
    55    27    80 1   
    56    27    81 1   
    57    27    82 1   
    58    28    29 1   
    59    28    83 1   
    60    28    84 1   
    61    29    85 1   
    62    29    86 1   
    63    29    87 1   
    64    30    31 ar  
    65    30    88 1   
    66    31    32 ar  
    67    31    89 1   
    68    33    34 1   
    69    34    35 1   
    70    34    90 1   
    71    34    91 1   
    72    35    36 1   
    73    35    92 1   
    74    35    93 1   
    75    36    37 1   
    76    37    38 1   
    77    37    94 1   
    78    37    95 1   
    79    38    39 1   
    80    38    96 1   
    81    38    97 1   
    82    39    40 1   
    83    40    41 1   
    84    40    98 1   
    85    40    99 1   
    86    41    42 1   
    87    41   100 1   
    88    41   101 1   
    89    42    43 1   
    90    42    46 1   
    91    43    44 2   
    92    44    45 1   
    93    45    46 2   
    94    45    47 1   
    95    46   102 1   
    96    47    48 1   
    97    47   103 1   
    98    47   104 1   
    99    48    49 1   
   100    49    50 1   
   101    49    57 1   
   102    49   105 1   
   103    50    51 1   
   104    50    52 1   
   105    50   106 1   
   106    51   107 1   
   107    52    53 1   
   108    52    54 1   
   109    52   108 1   
   110    53   109 1   
   111    54    55 1   
   112    54    56 1   
   113    54   110 1   
   114    55   111 1   
   115    56    57 1   
   116    56    58 1   
   117    56   112 1   
   118    58    59 1   
   119    58   113 1   
   120    58   114 1   
   121    59   115 1   
@<TRIPOS>SUBSTRUCTURE
     1 R3G         1 TEMP              0 ****  ****    0 ROOT
