@<TRIPOS>MOLECULE
R3I
   40    44     1     0     0
SMALL
abcg2


@<TRIPOS>ATOM
      1 N1         -20.1970     5.0420    27.2550 n          1 R3I      -0.255400
      2 C4         -16.5080     5.1580    25.3660 ca         1 R3I       0.373900
      3 C5         -18.2730     4.0010    26.2410 ca         1 R3I       0.346900
      4 C6         -18.9330     5.1430    26.6160 ca         1 R3I      -0.083000
      5 C7         -21.4560     4.9780    26.5040 c5         1 R3I       0.107000
      6 C8         -22.4680     4.5630    27.5760 c5         1 R3I      -0.078400
      7 C10        -22.3550     6.4780    29.3350 c5         1 R3I       0.166600
      8 C13        -22.7510     3.3160    32.6750 ca         1 R3I      -0.061000
      9 C15        -22.0970     2.9050    30.3690 ca         1 R3I      -0.038000
     10 C17        -20.3570     5.1060    28.5980 c          1 R3I       0.567000
     11 O1         -19.4630     5.2180    29.4250 o          1 R3I      -0.506000
     12 C9         -21.8670     5.0640    28.8980 c5         1 R3I      -0.110700
     13 C16        -22.1740     4.2650    30.1370 ca         1 R3I      -0.148300
     14 C14        -22.3940     2.4470    31.6510 ca         1 R3I       0.086000
     15 CL         -22.3090     0.7250    31.9800 cl         1 R3I      -0.211000
     16 C12        -22.8250     4.6870    32.4370 ca         1 R3I      -0.125000
     17 C11        -22.5310     5.1360    31.1600 ca         1 R3I       0.142100
     18 O          -22.5440     6.4410    30.7740 os         1 R3I      -0.324100
     19 N          -17.0690     3.9960    25.6180 nb         1 R3I      -0.656000
     20 C18        -18.3480     6.4080    26.3590 ca         1 R3I       0.018000
     21 C19        -18.9440     7.6390    26.7120 ca         1 R3I      -0.145000
     22 C          -18.2710     8.7890    26.4110 ca         1 R3I       0.190000
     23 F          -18.8230     9.9770    26.7440 f          1 R3I      -0.177000
     24 C3         -17.0820     6.4040    25.7070 ca         1 R3I      -0.113000
     25 C2         -16.4380     7.6300    25.4200 ca         1 R3I      -0.051000
     26 C1         -17.0220     8.8180    25.7680 ca         1 R3I      -0.145000
     27 H2         -18.7220     3.0360    26.4440 h4         1 R3I       0.029100
     28 H3         -21.6840     5.9550    26.0710 h1         1 R3I       0.054200
     29 H4         -21.3740     4.2500    25.6980 h1         1 R3I       0.054200
     30 H5         -23.4600     4.9700    27.3930 hc         1 R3I       0.067200
     31 H6         -22.5420     3.4760    27.6040 hc         1 R3I       0.067200
     32 H7         -21.6470     7.2740    29.1150 h1         1 R3I       0.066200
     33 H8         -23.3170     6.7040    28.8730 h1         1 R3I       0.066200
     34 H9         -22.9750     2.9250    33.6590 ha         1 R3I       0.133000
     35 H10        -21.8120     2.2130    29.5880 ha         1 R3I       0.132000
     36 H11        -23.1040     5.3740    33.2240 ha         1 R3I       0.138000
     37 H12        -19.9050     7.6820    27.2050 ha         1 R3I       0.136000
     38 H13        -15.4760     7.6160    24.9240 ha         1 R3I       0.125000
     39 H14        -16.5520     9.7710    25.5620 ha         1 R3I       0.138000
     40 H1         -15.5430     5.1470    24.8680 h4         1 R3I       0.024100
@<TRIPOS>BOND
     1     1     4 1   
     2     1     5 1   
     3     1    10 1   
     4     2    19 ar  
     5     2    24 ar  
     6     2    40 1   
     7     3     4 ar  
     8     3    19 ar  
     9     3    27 1   
    10     4    20 ar  
    11     5     6 1   
    12     5    28 1   
    13     5    29 1   
    14     6    12 1   
    15     6    30 1   
    16     6    31 1   
    17     7    12 1   
    18     7    18 1   
    19     7    32 1   
    20     7    33 1   
    21     8    14 ar  
    22     8    16 ar  
    23     8    34 1   
    24     9    13 ar  
    25     9    14 ar  
    26     9    35 1   
    27    10    11 2   
    28    10    12 1   
    29    12    13 1   
    30    13    17 ar  
    31    14    15 1   
    32    16    17 ar  
    33    16    36 1   
    34    17    18 1   
    35    20    21 ar  
    36    20    24 ar  
    37    21    22 ar  
    38    21    37 1   
    39    22    23 1   
    40    22    26 ar  
    41    24    25 ar  
    42    25    26 ar  
    43    25    38 1   
    44    26    39 1   
@<TRIPOS>SUBSTRUCTURE
     1 R3I         1 TEMP              0 ****  ****    0 ROOT
