@<TRIPOS>MOLECULE
R3I
   40    44     1     0     0
SMALL
No Charge or Current Charge


@<TRIPOS>ATOM
      1 N1         -20.4190     5.2250    27.0010 n          1 R3I      -0.255400
      2 C4         -16.7740     5.3000    24.9110 ca         1 R3I       0.373900
      3 C5         -18.7690     4.2630    25.4520 ca         1 R3I       0.346900
      4 C6         -19.2390     5.3800    26.1820 ca         1 R3I      -0.083000
      5 C7         -21.6910     4.7030    26.4320 c5         1 R3I       0.107000
      6 C8         -22.4090     4.0790    27.6670 c5         1 R3I      -0.078400
      7 C10        -22.6920     6.2740    28.9730 c5         1 R3I       0.166600
      8 C13        -22.6460     3.6720    32.8150 ca         1 R3I      -0.061000
      9 C15        -21.7260     3.0620    30.6300 ca         1 R3I      -0.038000
     10 C17        -20.4040     5.2730    28.4080 c          1 R3I       0.567000
     11 O1         -19.4200     5.4480    29.1150 o          1 R3I      -0.506000
     12 C9         -21.8410     4.9540    28.8190 c5         1 R3I      -0.110700
     13 C16        -22.0710     4.3430    30.1650 ca         1 R3I      -0.148300
     14 C14        -22.0240     2.7300    31.9670 ca         1 R3I       0.086000
     15 Cl         -21.6100     1.1360    32.5850 cl         1 R3I      -0.211000
     16 C12        -22.9740     4.9550    32.3280 ca         1 R3I      -0.125000
     17 C11        -22.6790     5.2600    30.9930 ca         1 R3I       0.142100
     18 O          -22.9320     6.4740    30.4090 os         1 R3I      -0.324100
     19 N          -17.5810     4.2210    24.8080 nb         1 R3I      -0.656000
     20 C18        -18.3570     6.4820    26.3280 ca         1 R3I       0.018000
     21 C19        -18.7040     7.6400    27.0590 ca         1 R3I      -0.145000
     22 C          -17.8050     8.7140    27.1480 ca         1 R3I       0.190000
     23 F          -18.1460     9.8150    27.8520 f          1 R3I      -0.177000
     24 C3         -17.1110     6.4390    25.6630 ca         1 R3I      -0.113000
     25 C2         -16.2140     7.5220    25.7540 ca         1 R3I      -0.051000
     26 C1         -16.5620     8.6590    26.5030 ca         1 R3I      -0.145000
     27 H2         -19.3640     3.3520    25.3930 h4         1 R3I       0.029100
     28 H3         -22.2770     5.5310    26.0100 h1         1 R3I       0.054200
     29 H4         -21.5310     3.9640    25.6370 h1         1 R3I       0.054200
     30 H5         -23.5020     4.0900    27.5840 hc         1 R3I       0.067200
     31 H6         -22.1070     3.0310    27.7800 hc         1 R3I       0.067200
     32 H7         -22.1930     7.1600    28.5560 h1         1 R3I       0.066200
     33 H8         -23.6710     6.1830    28.4830 h1         1 R3I       0.066200
     34 H9         -22.8680     3.4090    33.8470 ha         1 R3I       0.133000
     35 H10        -21.2340     2.3420    29.9810 ha         1 R3I       0.132000
     36 H11        -23.4470     5.6930    32.9710 ha         1 R3I       0.138000
     37 H12        -19.6690     7.7300    27.5470 ha         1 R3I       0.136000
     38 H13        -15.2510     7.4850    25.2460 ha         1 R3I       0.125000
     39 H14        -15.8750     9.4980    26.5760 ha         1 R3I       0.138000
     40 H1         -15.8220     5.2390    24.3850 h4         1 R3I       0.024100
@<TRIPOS>BOND
     1     1     4 1   
     2     1     5 1   
     3     1    10 1   
     4     2    19 ar  
     5     2    24 ar  
     6     2    40 1   
     7     3     4 ar  
     8     3    19 ar  
     9     3    27 1   
    10     4    20 ar  
    11     5     6 1   
    12     5    28 1   
    13     5    29 1   
    14     6    12 1   
    15     6    30 1   
    16     6    31 1   
    17     7    12 1   
    18     7    18 1   
    19     7    32 1   
    20     7    33 1   
    21     8    14 ar  
    22     8    16 ar  
    23     8    34 1   
    24     9    13 ar  
    25     9    14 ar  
    26     9    35 1   
    27    10    11 2   
    28    10    12 1   
    29    12    13 1   
    30    13    17 ar  
    31    14    15 1   
    32    16    17 ar  
    33    16    36 1   
    34    17    18 1   
    35    20    21 ar  
    36    20    24 ar  
    37    21    22 ar  
    38    21    37 1   
    39    22    23 1   
    40    22    26 ar  
    41    24    25 ar  
    42    25    26 ar  
    43    25    38 1   
    44    26    39 1   
@<TRIPOS>SUBSTRUCTURE
     1 R3I         1 TEMP              0 ****  ****    0 ROOT
