@<TRIPOS>MOLECULE
R3K
   15    15     1     0     0
SMALL
abcg2


@<TRIPOS>ATOM
      1 C2          77.3980   -13.1790     2.6530 c          1 R3K       0.610500
      2 O3          76.3050   -12.7330     3.0700 o          1 R3K      -0.737000
      3 C8          80.0780   -15.5360     4.0000 ca         1 R3K      -0.091000
      4 C9          79.3490   -14.7350     3.1350 ca         1 R3K      -0.175000
      5 C4          78.2230   -14.0600     3.6070 ca         1 R3K       0.266500
      6 O12         77.9010   -12.9850     1.5170 o          1 R3K      -0.737000
      7 N1          77.8320   -14.1620     4.8860 nb         1 R3K      -0.677000
      8 C5          78.5470   -14.9300     5.7100 ca         1 R3K       0.315900
      9 C6          79.6800   -15.6490     5.3300 ca         1 R3K      -0.209600
     10 C7          80.4410   -16.5170     6.3280 c          1 R3K       0.716600
     11 O11         81.4620   -17.1090     5.8990 o          1 R3K      -0.751000
     12 O10         79.9830   -16.5700     7.4970 o          1 R3K      -0.751000
     13 H4          78.2100   -14.9880     6.7380 h4         1 R3K       0.006100
     14 H2          80.9520   -16.0760     3.6600 ha         1 R3K       0.104000
     15 H3          79.6320   -14.6210     2.0990 ha         1 R3K       0.111000
@<TRIPOS>BOND
     1     1     2 1   
     2     1     5 1   
     3     1     6 1   
     4     3     4 ar  
     5     3     9 ar  
     6     3    14 1   
     7     4     5 ar  
     8     4    15 1   
     9     5     7 ar  
    10     7     8 ar  
    11     8     9 ar  
    12     8    13 1   
    13     9    10 1   
    14    10    11 1   
    15    10    12 1   
@<TRIPOS>SUBSTRUCTURE
     1 R3K         1 TEMP              0 ****  ****    0 ROOT
