@<TRIPOS>MOLECULE
R3K
   15    15     1     0     0
SMALL
No Charge or Current Charge


@<TRIPOS>ATOM
      1 C2          77.3830   -13.1590     2.6270 c          1 R3K       0.610500
      2 O3          76.3820   -12.5750     3.0370 o          1 R3K      -0.737000
      3 C8          80.1110   -15.5390     4.0010 ca         1 R3K      -0.091000
      4 C9          79.3600   -14.7290     3.1340 ca         1 R3K      -0.175000
      5 C4          78.2060   -14.0550     3.6030 ca         1 R3K       0.266500
      6 O12         77.7500   -13.0510     1.4610 o          1 R3K      -0.737000
      7 N1          77.8130   -14.1890     4.9100 nb         1 R3K      -0.677000
      8 C5          78.5400   -14.9710     5.7420 ca         1 R3K       0.315900
      9 C6          79.6940   -15.6670     5.3420 ca         1 R3K      -0.209600
     10 C7          80.4440   -16.5160     6.3350 c          1 R3K       0.716600
     11 O11         81.4430   -17.1090     5.9580 o          1 R3K      -0.751000
     12 O10         80.0280   -16.5830     7.4820 o          1 R3K      -0.751000
     13 H4          78.1690   -15.0300     6.7650 h4         1 R3K       0.006100
     14 H2          80.9960   -16.0540     3.6340 ha         1 R3K       0.104000
     15 H3          79.6730   -14.6240     2.0990 ha         1 R3K       0.111000
@<TRIPOS>BOND
     1     1     2 1   
     2     1     5 1   
     3     1     6 1   
     4     3     4 ar  
     5     3     9 ar  
     6     3    14 1   
     7     4     5 ar  
     8     4    15 1   
     9     5     7 ar  
    10     7     8 ar  
    11     8     9 ar  
    12     8    13 1   
    13     9    10 1   
    14    10    11 1   
    15    10    12 1   
@<TRIPOS>SUBSTRUCTURE
     1 R3K         1 TEMP              0 ****  ****    0 ROOT
