@<TRIPOS>MOLECULE
R3L
   57    61     1     0     0
SMALL
abcg2


@<TRIPOS>ATOM
      1 N1         -82.8830   -20.7720    84.3420 nu         1 R3L      -0.936900
      2 N3         -78.9810   -16.8510    88.8460 nb         1 R3L      -0.679000
      3 C4         -85.5260   -19.9390    86.8230 ca         1 R3L      -0.136600
      4 C5         -85.7990   -18.8160    87.7760 c          1 R3L       0.617700
      5 C6         -86.9920   -18.3560    89.9300 ca         1 R3L      -0.019000
      6 C7         -86.8030   -16.9740    90.0000 ca         1 R3L      -0.134000
      7 C8         -87.2780   -16.2490    91.0950 ca         1 R3L      -0.048300
      8 C10        -87.9400   -16.9170    92.1240 ca         1 R3L      -0.138000
      9 C13        -84.3850   -19.8340    86.0320 ca         1 R3L      -0.063000
     10 C15        -81.7060   -20.1440    84.6010 ca         1 R3L       0.463900
     11 C17        -80.2520   -18.2240    87.3280 cp         1 R3L      -0.209500
     12 C20        -79.9920   -16.9220    89.7190 ca         1 R3L       0.349900
     13 C21        -79.1160   -17.4900    87.6830 ca         1 R3L       0.377900
     14 C22        -79.4860   -19.4800    84.0420 ca         1 R3L       0.166500
     15 C24        -80.3710   -20.6450    82.3540 cc         1 R3L       0.387800
     16 N          -86.5480   -19.1550    88.8620 ns         1 R3L      -0.143000
     17 O          -85.3550   -17.6860    87.5800 o          1 R3L      -0.581100
     18 C1         -84.8790   -21.9660    84.9850 ca         1 R3L      -0.097300
     19 C11        -88.1310   -18.2940    92.0540 ca         1 R3L      -0.079000
     20 C12        -87.6640   -19.0150    90.9670 ca         1 R3L      -0.171000
     21 C14        -84.0410   -20.8450    85.1390 ca         1 R3L       0.296000
     22 C16        -80.3470   -18.9020    86.0130 cp         1 R3L       0.274500
     23 C18        -81.2950   -18.2850    88.2540 ca         1 R3L      -0.022000
     24 C19        -81.1620   -17.6260    89.4660 ca         1 R3L      -0.177000
     25 C2         -86.0340   -22.0340    85.7600 ca         1 R3L      -0.096000
     26 C23        -80.6570   -20.1530    83.6510 ca         1 R3L      -0.389900
     27 C3         -86.3590   -21.0490    86.6820 ca         1 R3L      -0.104000
     28 C9         -87.0930   -14.7550    91.1410 c3         1 R3L      -0.049800
     29 N2         -81.5170   -19.5200    85.7600 nb         1 R3L      -0.295000
     30 N4         -79.2920   -18.8420    85.2040 nb         1 R3L      -0.221000
     31 N5         -79.1460   -20.3070    81.9900 nd         1 R3L      -0.515100
     32 N6         -78.6060   -19.5970    83.0210 na         1 R3L      -0.032100
     33 H14        -82.9020   -21.3140    83.4920 hn         1 R3L       0.505000
     34 H6         -86.2820   -16.4680    89.2050 ha         1 R3L       0.148000
     35 H10        -88.3030   -16.3620    92.9800 ha         1 R3L       0.114000
     36 H13        -83.7590   -18.9660    86.1310 ha         1 R3L       0.164000
     37 H17        -79.8580   -16.3950    90.6580 h4         1 R3L       0.019100
     38 H18        -78.2880   -17.4190    86.9900 h4         1 R3L       0.038100
     39 H19        -80.9950   -21.2180    81.6860 h4         1 R3L       0.047800
     40 H5         -86.7650   -20.1340    88.9600 hn         1 R3L       0.151000
     41 H2         -83.5520   -23.4830    84.2210 hc         1 R3L       0.047367
     42 H          -85.2740   -23.8660    84.0770 hc         1 R3L       0.047367
     43 H1         -84.5290   -22.7010    82.9830 hc         1 R3L       0.047367
     44 H11        -88.6450   -18.8110    92.8550 ha         1 R3L       0.112000
     45 H12        -87.8110   -20.0870    90.9130 ha         1 R3L       0.108000
     46 H15        -82.1900   -18.8420    88.0170 ha         1 R3L       0.142000
     47 H16        -81.9530   -17.6540    90.2040 ha         1 R3L       0.128000
     48 H3         -86.6890   -22.8880    85.6390 ha         1 R3L       0.118000
     49 H21        -76.8310   -19.3750    82.0020 h1         1 R3L       0.060367
     50 H20        -77.2760   -17.9790    83.0110 h1         1 R3L       0.060367
     51 H22        -76.6570   -19.4620    83.7710 h1         1 R3L       0.060367
     52 H4         -87.2710   -21.1460    87.2550 ha         1 R3L       0.116000
     53 H7         -87.9210   -14.2480    90.6350 hc         1 R3L       0.045033
     54 H8         -87.0670   -14.3930    92.1700 hc         1 R3L       0.045033
     55 H9         -86.1720   -14.4540    90.6410 hc         1 R3L       0.045033
     56 C25        -77.2590   -19.0670    82.9520 c3         1 R3L       0.087900
     57 C          -84.5410   -23.0630    84.0160 c3         1 R3L      -0.053800
@<TRIPOS>BOND
     1     1    10 1   
     2     1    21 1   
     3     1    33 1   
     4     2    12 ar  
     5     2    13 ar  
     6     3     4 1   
     7     3     9 ar  
     8     3    27 ar  
     9     4    16 1   
    10     4    17 2   
    11     5     6 ar  
    12     5    16 1   
    13     5    20 ar  
    14     6     7 ar  
    15     6    34 1   
    16     7     8 ar  
    17     7    28 1   
    18     8    19 ar  
    19     8    35 1   
    20     9    21 ar  
    21     9    36 1   
    22    10    26 ar  
    23    10    29 ar  
    24    11    13 ar  
    25    11    22 1   
    26    11    23 ar  
    27    12    24 ar  
    28    12    37 1   
    29    13    38 1   
    30    14    26 ar  
    31    14    30 ar  
    32    14    32 1   
    33    15    26 1   
    34    15    31 2   
    35    15    39 1   
    36    16    40 1   
    37    18    21 ar  
    38    18    25 ar  
    39    18    57 1   
    40    19    20 ar  
    41    19    44 1   
    42    20    45 1   
    43    22    29 ar  
    44    22    30 ar  
    45    23    24 ar  
    46    23    46 1   
    47    24    47 1   
    48    25    27 ar  
    49    25    48 1   
    50    27    52 1   
    51    28    53 1   
    52    28    54 1   
    53    28    55 1   
    54    31    32 1   
    55    32    56 1   
    56    41    57 1   
    57    42    57 1   
    58    43    57 1   
    59    49    56 1   
    60    50    56 1   
    61    51    56 1   
@<TRIPOS>SUBSTRUCTURE
     1 R3L         1 TEMP              0 ****  ****    0 ROOT
