@<TRIPOS>MOLECULE
R3L
   57    61     1     0     0
SMALL
No Charge or Current Charge


@<TRIPOS>ATOM
      1 N1         -82.7370   -20.7890    84.5800 nu         1 R3L      -0.936900
      2 N3         -78.1040   -16.9290    88.6040 nb         1 R3L      -0.679000
      3 C4         -85.3980   -20.0130    87.1090 ca         1 R3L      -0.136600
      4 C5         -85.7620   -18.8720    88.0450 c          1 R3L       0.617700
      5 C6         -87.5560   -18.2600    89.7910 ca         1 R3L      -0.019000
      6 C7         -87.0680   -17.0100    90.2340 ca         1 R3L      -0.134000
      7 C8         -87.7660   -16.2720    91.2100 ca         1 R3L      -0.048300
      8 C10        -88.9610   -16.7830    91.7450 ca         1 R3L      -0.138000
      9 C13        -84.2600   -19.8910    86.2790 ca         1 R3L      -0.063000
     10 C15        -81.5410   -20.1000    84.6940 ca         1 R3L       0.463900
     11 C17        -79.6990   -18.2160    87.2600 cp         1 R3L      -0.209500
     12 C20        -78.9780   -16.9540    89.6340 ca         1 R3L       0.349900
     13 C21        -78.4620   -17.5440    87.4520 ca         1 R3L       0.377900
     14 C22        -79.4620   -19.3790    83.7880 ca         1 R3L       0.166500
     15 C24        -80.6820   -20.5420    82.2960 cc         1 R3L       0.387800
     16 N          -86.9050   -19.0640    88.8130 ns         1 R3L      -0.143000
     17 O          -85.0750   -17.8580    88.1000 o          1 R3L      -0.581100
     18 C1         -84.6500   -22.0990    85.3270 ca         1 R3L      -0.097300
     19 C11        -89.4530   -18.0240    91.3130 ca         1 R3L      -0.079000
     20 C12        -88.7520   -18.7570    90.3420 ca         1 R3L      -0.171000
     21 C14        -83.8680   -20.9230    85.4020 ca         1 R3L       0.296000
     22 C16        -80.0330   -18.8770    85.9540 cp         1 R3L       0.274500
     23 C18        -80.5970   -18.2250    88.3610 ca         1 R3L      -0.022000
     24 C19        -80.2260   -17.5870    89.5540 ca         1 R3L      -0.177000
     25 C2         -85.7870   -22.2280    86.1470 ca         1 R3L      -0.096000
     26 C23        -80.6440   -20.0370    83.6400 ca         1 R3L      -0.389900
     27 C3         -86.1570   -21.2040    87.0320 ca         1 R3L      -0.104000
     28 C9         -87.2300   -14.9260    91.6760 c3         1 R3L      -0.049800
     29 N2         -81.2220   -19.5230    85.8650 nb         1 R3L      -0.295000
     30 N4         -79.1290   -18.7830    84.9460 nb         1 R3L      -0.221000
     31 N5         -79.5700   -20.2220    81.6190 nd         1 R3L      -0.515100
     32 N6         -78.8360   -19.5060    82.5630 na         1 R3L      -0.032100
     33 H14        -82.7440   -21.4230    83.7850 hn         1 R3L       0.505000
     34 H6         -86.1480   -16.5940    89.8380 ha         1 R3L       0.148000
     35 H10        -89.5110   -16.2190    92.4960 ha         1 R3L       0.114000
     36 H13        -83.6830   -18.9720    86.3030 ha         1 R3L       0.164000
     37 H17        -78.6670   -16.4520    90.5490 h4         1 R3L       0.019100
     38 H18        -77.7210   -17.4950    86.6540 h4         1 R3L       0.038100
     39 H19        -81.4370   -21.1140    81.7720 h4         1 R3L       0.047800
     40 H5         -87.3680   -19.9470    88.6470 hn         1 R3L       0.151000
     41 H2         -83.2620   -23.5990    84.5670 hc         1 R3L       0.047367
     42 H          -84.9510   -24.1060    84.5090 hc         1 R3L       0.047367
     43 H1         -84.3530   -22.9310    83.3340 hc         1 R3L       0.047367
     44 H11        -90.3780   -18.4170    91.7300 ha         1 R3L       0.112000
     45 H12        -89.1440   -19.7180    90.0160 ha         1 R3L       0.108000
     46 H15        -81.5670   -18.7150    88.2990 ha         1 R3L       0.142000
     47 H16        -80.8940   -17.5790    90.4100 ha         1 R3L       0.128000
     48 H3         -86.3920   -23.1320    86.1030 ha         1 R3L       0.118000
     49 H21        -77.2190   -19.1650    81.2420 h1         1 R3L       0.060367
     50 H20        -77.5430   -17.8470    82.4060 h1         1 R3L       0.060367
     51 H22        -76.7700   -19.3610    82.9620 h1         1 R3L       0.060367
     52 H4         -87.0420   -21.3540    87.6470 ha         1 R3L       0.116000
     53 H7         -87.5350   -14.1270    90.9900 hc         1 R3L       0.045033
     54 H8         -87.6020   -14.6690    92.6750 hc         1 R3L       0.045033
     55 H9         -86.1350   -14.9280    91.7240 hc         1 R3L       0.045033
     56 C25        -77.5100   -18.9350    82.2740 c3         1 R3L       0.087900
     57 C          -84.2840   -23.2450    84.3830 c3         1 R3L      -0.053800
@<TRIPOS>BOND
     1     1    10 1   
     2     1    21 1   
     3     1    33 1   
     4     2    12 ar  
     5     2    13 ar  
     6     3     4 1   
     7     3     9 ar  
     8     3    27 ar  
     9     4    16 1   
    10     4    17 2   
    11     5     6 ar  
    12     5    16 1   
    13     5    20 ar  
    14     6     7 ar  
    15     6    34 1   
    16     7     8 ar  
    17     7    28 1   
    18     8    19 ar  
    19     8    35 1   
    20     9    21 ar  
    21     9    36 1   
    22    10    26 ar  
    23    10    29 ar  
    24    11    13 ar  
    25    11    22 1   
    26    11    23 ar  
    27    12    24 ar  
    28    12    37 1   
    29    13    38 1   
    30    14    26 ar  
    31    14    30 ar  
    32    14    32 1   
    33    15    26 1   
    34    15    31 2   
    35    15    39 1   
    36    16    40 1   
    37    18    21 ar  
    38    18    25 ar  
    39    18    57 1   
    40    19    20 ar  
    41    19    44 1   
    42    20    45 1   
    43    22    29 ar  
    44    22    30 ar  
    45    23    24 ar  
    46    23    46 1   
    47    24    47 1   
    48    25    27 ar  
    49    25    48 1   
    50    27    52 1   
    51    28    53 1   
    52    28    54 1   
    53    28    55 1   
    54    31    32 1   
    55    32    56 1   
    56    41    57 1   
    57    42    57 1   
    58    43    57 1   
    59    49    56 1   
    60    50    56 1   
    61    51    56 1   
@<TRIPOS>SUBSTRUCTURE
     1 R3L         1 TEMP              0 ****  ****    0 ROOT
