@<TRIPOS>MOLECULE
R3M
  116   121     1     0     0
SMALL
No Charge or Current Charge


@<TRIPOS>ATOM
      1 O7P          5.5500    48.7950    18.0010 o          1 R3M      -0.513000
      2 C7P          4.5520    48.2140    17.5960 c          1 R3M       0.625700
      3 O1           4.4920    47.5300    16.4130 os         1 R3M      -0.441100
      4 C2           5.6940    47.4020    15.6280 c3         1 R3M       0.161600
      5 C3           5.3240    46.7390    14.2830 c3         1 R3M       0.149600
      6 O4           5.1800    45.3150    14.4670 os         1 R3M      -0.450000
      7 C5           4.6630    44.6270    13.3090 c3         1 R3M       0.160600
      8 C6           4.8420    43.0990    13.4750 c3         1 R3M       0.154600
      9 O7           3.9280    42.6050    14.4730 os         1 R3M      -0.455000
     10 C8           3.9090    41.1710    14.5970 c3         1 R3M       0.135600
     11 C9           3.0130    40.7860    15.7900 c3         1 R3M       0.080600
     12 N3T          3.6340    41.0160    17.1070 na         1 R3M       0.110800
     13 N2T          3.6240    40.0350    18.0540 nc         1 R3M      -0.229800
     14 C4T          4.3100    42.1290    17.5440 cc         1 R3M      -0.145000
     15 C5T          4.7400    41.7690    18.7900 cd         1 R3M       0.177300
     16 C1           5.5930    42.5560    19.7580 c3         1 R3M       0.150300
     17 O1M          6.2030    43.6750    19.0840 os         1 R3M      -0.488000
     18 C1M          7.0620    44.5050    19.8900 c6         1 R3M       0.343300
     19 C2M          7.4770    45.8030    19.1160 c6         1 R3M       0.165300
     20 O2M          8.1760    46.7510    19.9570 oh         1 R3M      -0.707000
     21 C3M          8.3910    45.4090    17.9160 c6         1 R3M       0.178300
     22 O3M          8.8810    46.5850    17.2440 oh         1 R3M      -0.652000
     23 C4M          9.5970    44.5390    18.3860 c6         1 R3M       0.111300
     24 O4M         10.4050    44.1600    17.2440 oh         1 R3M      -0.741000
     25 C5M          9.0650    43.3010    19.1750 c6         1 R3M       0.148300
     26 C6M         10.2060    42.4000    19.7580 c3         1 R3M       0.161600
     27 O6M         11.0700    43.0840    20.6890 oh         1 R3M      -0.719000
     28 O5M          8.2280    43.7400    20.2810 os         1 R3M      -0.457000
     29 N1T          4.2960    40.4930    19.0750 nd         1 R3M      -0.344000
     30 C1P          3.2070    48.3460    18.2530 ca         1 R3M      -0.128600
     31 C6P          2.6950    49.6440    18.4620 ca         1 R3M      -0.073000
     32 C5P          1.4310    49.8320    19.0420 ca         1 R3M      -0.120000
     33 C4P          0.6650    48.7220    19.4240 ca         1 R3M      -0.090000
     34 C3P          1.1700    47.4260    19.2360 ca         1 R3M      -0.095000
     35 C2P          2.4400    47.2190    18.6560 ca         1 R3M      -0.023300
     36 C4B          2.9590    45.7700    18.5550 c6         1 R3M       0.111200
     37 C2A          2.0690    44.9250    17.6430 ca         1 R3M      -0.208800
     38 C3A          1.9360    45.2580    16.2850 ca         1 R3M      -0.024500
     39 C4A          1.1340    44.4780    15.4400 ca         1 R3M      -0.211500
     40 C5A          0.4470    43.3520    15.9300 ca         1 R3M       0.377000
     41 N1A         -0.3240    42.5340    15.0580 nh         1 R3M      -0.845900
     42 C21          0.0210    42.4010    13.6220 c3         1 R3M       0.230800
     43 C22         -0.8620    43.2550    12.6950 c3         1 R3M      -0.118600
     44 C11         -1.4560    41.7160    15.5530 c3         1 R3M       0.230800
     45 C12         -1.0880    40.2420    15.8110 c3         1 R3M      -0.118600
     46 C6A          0.5730    43.0340    17.2940 ca         1 R3M      -0.227500
     47 C1A          1.3790    43.8060    18.1400 ca         1 R3M       0.178100
     48 O1B          1.4890    43.4290    19.4560 os         1 R3M      -0.244200
     49 C2C          2.3510    44.0390    20.3320 ca         1 R3M       0.178100
     50 C3C          2.4810    43.5030    21.6190 ca         1 R3M      -0.227500
     51 C1C          3.0930    45.1710    19.9540 ca         1 R3M      -0.208800
     52 C6C          3.9590    45.7660    20.8870 ca         1 R3M      -0.024500
     53 C5C          4.0880    45.2220    22.1740 ca         1 R3M      -0.211500
     54 C4C          3.3560    44.0820    22.5550 ca         1 R3M       0.377000
     55 N1C          3.5040    43.5210    23.8510 nh         1 R3M      -0.845900
     56 C23          3.3660    42.0620    24.0820 c3         1 R3M       0.230800
     57 C24          2.0140    41.6570    24.6980 c3         1 R3M      -0.118600
     58 C13          3.8310    44.3620    25.0280 c3         1 R3M       0.230800
     59 C14          5.3130    44.3020    25.4430 c3         1 R3M      -0.118600
     60 H1           6.4470    46.7980    16.1470 h1         1 R3M       0.068200
     61 H2           6.1250    48.3910    15.4230 h1         1 R3M       0.068200
     62 H3           6.1190    46.9460    13.5550 h1         1 R3M       0.039200
     63 H4           4.3940    47.1850    13.9040 h1         1 R3M       0.039200
     64 H5           5.2100    44.9360    12.4080 h1         1 R3M       0.038700
     65 H6           3.6010    44.8610    13.1560 h1         1 R3M       0.038700
     66 H7           5.8810    42.8780    13.7510 h1         1 R3M       0.035200
     67 H8           4.6400    42.6210    12.5070 h1         1 R3M       0.035200
     68 H9           3.5000    40.7200    13.6840 h1         1 R3M       0.040700
     69 H10          4.9190    40.7710    14.7550 h1         1 R3M       0.040700
     70 H11          2.0730    41.3400    15.7360 h1         1 R3M       0.081200
     71 H12          2.7680    39.7200    15.7060 h1         1 R3M       0.081200
     72 H13          4.4470    43.0300    16.9630 h4         1 R3M       0.187000
     73 H14          4.9670    42.8980    20.5900 h1         1 R3M       0.052700
     74 H15          6.3600    41.8870    20.1700 h1         1 R3M       0.052700
     75 H16          6.5160    44.8100    20.7950 h2         1 R3M       0.081700
     76 H17          6.5630    46.2640    18.7160 h1         1 R3M       0.056700
     77 H18          8.6270    47.3550    19.3200 ho         1 R3M       0.525000
     78 H19          7.7900    44.8070    17.2170 h1         1 R3M       0.059700
     79 H20          9.6180    46.2560    16.6800 ho         1 R3M       0.452000
     80 H21         10.1970    45.1430    19.0850 h1         1 R3M       0.086700
     81 H22         11.2820    43.8700    17.5910 ho         1 R3M       0.508000
     82 H23          8.4630    42.6750    18.5000 h1         1 R3M       0.061700
     83 H24          9.7310    41.5420    20.2520 h1         1 R3M       0.032700
     84 H25         10.7940    41.9980    18.9220 h1         1 R3M       0.032700
     85 H26         11.6360    42.3980    21.1140 ho         1 R3M       0.496000
     86 H27          3.2780    50.5120    18.1610 ha         1 R3M       0.120000
     87 H28          1.0440    50.8380    19.1920 ha         1 R3M       0.117000
     88 H29         -0.3140    48.8640    19.8750 ha         1 R3M       0.117000
     89 H30          0.5760    46.5720    19.5540 ha         1 R3M       0.130000
     90 H31          3.9660    45.7480    18.1210 hc         1 R3M       0.065700
     91 H32          2.4570    46.1200    15.8760 ha         1 R3M       0.123000
     92 H33          1.0560    44.7610    14.3970 ha         1 R3M       0.118000
     93 H34         -0.0690    41.3510    13.3140 h1         1 R3M       0.046575
     94 H35          1.0740    42.6710    13.4590 h1         1 R3M       0.046575
     95 H36         -0.5420    43.1360    11.6530 hc         1 R3M       0.042783
     96 H37         -1.9120    42.9490    12.7670 hc         1 R3M       0.042783
     97 H38         -0.7940    44.3170    12.9560 hc         1 R3M       0.042783
     98 H39         -1.8590    42.1510    16.4770 h1         1 R3M       0.046575
     99 H40         -2.2780    41.7450    14.8240 h1         1 R3M       0.046575
    100 H41         -1.9550    39.7010    16.2070 hc         1 R3M       0.042783
    101 H42         -0.7740    39.7490    14.8840 hc         1 R3M       0.042783
    102 H43         -0.2720    40.1600    16.5380 hc         1 R3M       0.042783
    103 H44          0.0730    42.1690    17.7110 ha         1 R3M       0.129500
    104 H45          1.8920    42.6330    21.8800 ha         1 R3M       0.129500
    105 H46          4.5360    46.6480    20.6150 ha         1 R3M       0.123000
    106 H47          4.7770    45.6920    22.8680 ha         1 R3M       0.118000
    107 H48          3.5010    41.5180    23.1370 h1         1 R3M       0.046575
    108 H49          4.1680    41.7130    24.7450 h1         1 R3M       0.046575
    109 H50          1.9610    40.5680    24.8080 hc         1 R3M       0.042783
    110 H51          1.8870    42.1060    25.6900 hc         1 R3M       0.042783
    111 H52          1.1810    41.9790    24.0630 hc         1 R3M       0.042783
    112 H53          3.5620    45.4090    24.8260 h1         1 R3M       0.046575
    113 H54          3.2170    44.0550    25.8850 h1         1 R3M       0.046575
    114 H55          5.4950    44.9770    26.2880 hc         1 R3M       0.042783
    115 H56          5.5920    43.2880    25.7520 hc         1 R3M       0.042783
    116 H57          5.9660    44.6040    24.6170 hc         1 R3M       0.042783
@<TRIPOS>BOND
     1     1     2 2   
     2     2     3 1   
     3     2    30 1   
     4     3     4 1   
     5     4     5 1   
     6     4    60 1   
     7     4    61 1   
     8     5     6 1   
     9     5    62 1   
    10     5    63 1   
    11     6     7 1   
    12     7     8 1   
    13     7    64 1   
    14     7    65 1   
    15     8     9 1   
    16     8    66 1   
    17     8    67 1   
    18     9    10 1   
    19    10    11 1   
    20    10    68 1   
    21    10    69 1   
    22    11    12 1   
    23    11    70 1   
    24    11    71 1   
    25    12    13 1   
    26    12    14 1   
    27    13    29 2   
    28    14    15 2   
    29    14    72 1   
    30    15    16 1   
    31    15    29 1   
    32    16    17 1   
    33    16    73 1   
    34    16    74 1   
    35    17    18 1   
    36    18    19 1   
    37    18    28 1   
    38    18    75 1   
    39    19    20 1   
    40    19    21 1   
    41    19    76 1   
    42    20    77 1   
    43    21    22 1   
    44    21    23 1   
    45    21    78 1   
    46    22    79 1   
    47    23    24 1   
    48    23    25 1   
    49    23    80 1   
    50    24    81 1   
    51    25    26 1   
    52    25    28 1   
    53    25    82 1   
    54    26    27 1   
    55    26    83 1   
    56    26    84 1   
    57    27    85 1   
    58    30    31 ar  
    59    30    35 ar  
    60    31    32 ar  
    61    31    86 1   
    62    32    33 ar  
    63    32    87 1   
    64    33    34 ar  
    65    33    88 1   
    66    34    35 ar  
    67    34    89 1   
    68    35    36 1   
    69    36    37 1   
    70    36    51 1   
    71    36    90 1   
    72    37    38 ar  
    73    37    47 ar  
    74    38    39 ar  
    75    38    91 1   
    76    39    40 ar  
    77    39    92 1   
    78    40    41 1   
    79    40    46 ar  
    80    41    42 1   
    81    41    44 1   
    82    42    43 1   
    83    42    93 1   
    84    42    94 1   
    85    43    95 1   
    86    43    96 1   
    87    43    97 1   
    88    44    45 1   
    89    44    98 1   
    90    44    99 1   
    91    45   100 1   
    92    45   101 1   
    93    45   102 1   
    94    46    47 ar  
    95    46   103 1   
    96    47    48 1   
    97    48    49 1   
    98    49    50 ar  
    99    49    51 ar  
   100    50    54 ar  
   101    50   104 1   
   102    51    52 ar  
   103    52    53 ar  
   104    52   105 1   
   105    53    54 ar  
   106    53   106 1   
   107    54    55 1   
   108    55    56 1   
   109    55    58 1   
   110    56    57 1   
   111    56   107 1   
   112    56   108 1   
   113    57   109 1   
   114    57   110 1   
   115    57   111 1   
   116    58    59 1   
   117    58   112 1   
   118    58   113 1   
   119    59   114 1   
   120    59   115 1   
   121    59   116 1   
@<TRIPOS>SUBSTRUCTURE
     1 R3M         1 TEMP              0 ****  ****    0 ROOT
