@<TRIPOS>MOLECULE
R3M
  116   121     1     0     0
SMALL
abcg2


@<TRIPOS>ATOM
      1 O7P          5.5300    47.4950    18.0490 o          1 R3M      -0.513000
      2 C7P          4.5630    47.8260    17.3910 c          1 R3M       0.625700
      3 O1           4.5720    47.9820    16.0710 os         1 R3M      -0.441100
      4 C2           5.7900    47.6990    15.3360 c3         1 R3M       0.161600
      5 C3           5.4010    47.2360    13.9580 c3         1 R3M       0.149600
      6 O4           4.8960    45.9100    14.0210 os         1 R3M      -0.450000
      7 C5           4.2530    45.5080    12.8130 c3         1 R3M       0.160600
      8 C6           4.4340    44.0330    12.5660 c3         1 R3M       0.154600
      9 O7           3.7230    43.2730    13.5340 os         1 R3M      -0.455000
     10 C8           3.7760    41.8830    13.2650 c3         1 R3M       0.135600
     11 C9           3.0610    41.1300    14.3680 c3         1 R3M       0.080600
     12 N3T          3.7850    41.1710    15.6300 na         1 R3M       0.110800
     13 N2T          4.4570    40.0940    16.0750 nc         1 R3M      -0.229800
     14 C4T          3.9530    42.2160    16.4600 cc         1 R3M      -0.145000
     15 C5T          4.7730    41.7420    17.4590 cd         1 R3M       0.177300
     16 C1           5.3620    42.4670    18.6110 c3         1 R3M       0.150300
     17 O1M          6.5260    43.1750    18.1520 os         1 R3M      -0.488000
     18 C1M          6.8410    44.3180    18.9040 c6         1 R3M       0.343300
     19 C2M          7.9440    45.0690    18.1500 c6         1 R3M       0.165300
     20 O2M          8.1140    46.3660    18.7050 oh         1 R3M      -0.707000
     21 C3M          9.2420    44.2840    18.2480 c6         1 R3M       0.178300
     22 O3M         10.2850    44.9990    17.5970 oh         1 R3M      -0.652000
     23 C4M          9.5840    43.9870    19.6990 c6         1 R3M       0.111300
     24 O4M         10.7550    43.1650    19.6880 oh         1 R3M      -0.741000
     25 C5M          8.4140    43.2550    20.3690 c6         1 R3M       0.148300
     26 C6M          8.6280    42.9910    21.8430 c3         1 R3M       0.161600
     27 O6M          8.9580    44.2100    22.5100 oh         1 R3M      -0.719000
     28 O5M          7.2080    44.0180    20.2330 os         1 R3M      -0.457000
     29 N1T          5.0520    40.4380    17.1840 nd         1 R3M      -0.344000
     30 C1P          3.2220    48.1190    17.9740 ca         1 R3M      -0.128600
     31 C6P          2.6970    49.4070    17.8330 ca         1 R3M      -0.073000
     32 C5P          1.4890    49.7350    18.4270 ca         1 R3M      -0.120000
     33 C4P          0.7890    48.7670    19.1460 ca         1 R3M      -0.090000
     34 C3P          1.2980    47.4810    19.2550 ca         1 R3M      -0.095000
     35 C2P          2.5180    47.1360    18.6740 ca         1 R3M      -0.023300
     36 C4B          2.9910    45.6910    18.7180 c6         1 R3M       0.111200
     37 C2A          2.0560    44.7970    17.9320 ca         1 R3M      -0.208800
     38 C3A          1.7020    45.0850    16.6130 ca         1 R3M      -0.024500
     39 C4A          0.9050    44.2500    15.8540 ca         1 R3M      -0.211500
     40 C5A          0.4150    43.0360    16.3920 ca         1 R3M       0.377000
     41 N1A         -0.3440    42.1680    15.6460 nh         1 R3M      -0.845900
     42 C21         -0.6400    42.4160    14.2410 c3         1 R3M       0.230800
     43 C22         -1.8760    43.2850    14.0230 c3         1 R3M      -0.118600
     44 C11         -0.9060    40.9580    16.2320 c3         1 R3M       0.230800
     45 C12          0.0510    39.7680    16.2080 c3         1 R3M      -0.118600
     46 C6A          0.7530    42.7490    17.7250 ca         1 R3M      -0.227500
     47 C1A          1.5500    43.6150    18.4610 ca         1 R3M       0.178100
     48 O1B          1.8280    43.1930    19.7410 os         1 R3M      -0.244200
     49 C2C          2.6310    43.9680    20.5480 ca         1 R3M       0.178100
     50 C3C          2.8700    43.4430    21.8110 ca         1 R3M      -0.227500
     51 C1C          3.1730    45.1750    20.1240 ca         1 R3M      -0.208800
     52 C6C          3.9710    45.8520    21.0490 ca         1 R3M      -0.024500
     53 C5C          4.2320    45.3610    22.3120 ca         1 R3M      -0.211500
     54 C4C          3.6910    44.1200    22.7310 ca         1 R3M       0.377000
     55 N1C          3.9590    43.5990    23.9720 nh         1 R3M      -0.845900
     56 C23          3.5280    42.2610    24.3480 c3         1 R3M       0.230800
     57 C24          2.1280    42.2180    24.9590 c3         1 R3M      -0.118600
     58 C13          4.7280    44.3380    24.9640 c3         1 R3M       0.230800
     59 C14          6.2380    44.1510    24.8280 c3         1 R3M      -0.118600
     60 H1           6.3710    46.9460    15.8640 h1         1 R3M       0.068200
     61 H2           6.3660    48.6230    15.2740 h1         1 R3M       0.068200
     62 H3           6.2850    47.2700    13.3090 h1         1 R3M       0.039200
     63 H4           4.6500    47.9180    13.5430 h1         1 R3M       0.039200
     64 H5           4.6820    46.0420    11.9590 h1         1 R3M       0.038700
     65 H6           3.1850    45.7540    12.8670 h1         1 R3M       0.038700
     66 H7           5.4990    43.7730    12.5960 h1         1 R3M       0.035200
     67 H8           4.0530    43.8050    11.5620 h1         1 R3M       0.035200
     68 H9           3.2790    41.6620    12.3120 h1         1 R3M       0.040700
     69 H10          4.8180    41.5460    13.1930 h1         1 R3M       0.040700
     70 H11          2.0670    41.5450    14.5280 h1         1 R3M       0.081200
     71 H12          2.9620    40.0820    14.0960 h1         1 R3M       0.081200
     72 H13          3.4880    43.1680    16.2880 h4         1 R3M       0.187000
     73 H14          4.6520    43.1860    19.0230 h1         1 R3M       0.052700
     74 H15          5.6360    41.7630    19.3990 h1         1 R3M       0.052700
     75 H16          5.9620    44.9590    19.0050 h2         1 R3M       0.081700
     76 H17          7.6450    45.1430    17.1010 h1         1 R3M       0.056700
     77 H18          7.3310    46.8810    18.4490 ho         1 R3M       0.525000
     78 H19          9.0800    43.3250    17.7400 h1         1 R3M       0.059700
     79 H20         11.1020    44.5110    17.7680 ho         1 R3M       0.452000
     80 H21          9.7840    44.9210    20.2250 h1         1 R3M       0.086700
     81 H22         11.2530    43.3180    20.4990 ho         1 R3M       0.508000
     82 H23          8.2910    42.2830    19.8780 h1         1 R3M       0.061700
     83 H24          7.7130    42.5570    22.2560 h1         1 R3M       0.032700
     84 H25          9.4360    42.2610    21.9530 h1         1 R3M       0.032700
     85 H26          9.0120    44.0300    23.4560 ho         1 R3M       0.496000
     86 H27          3.2480    50.1510    17.2720 ha         1 R3M       0.120000
     87 H28          1.0940    50.7380    18.3300 ha         1 R3M       0.117000
     88 H29         -0.1560    49.0140    19.6120 ha         1 R3M       0.117000
     89 H30          0.7410    46.7210    19.7880 ha         1 R3M       0.130000
     90 H31          3.9660    45.6500    18.2280 hc         1 R3M       0.065700
     91 H32          2.0670    46.0000    16.1610 ha         1 R3M       0.123000
     92 H33          0.6670    44.5390    14.8430 ha         1 R3M       0.118000
     93 H34         -0.7800    41.4450    13.7640 h1         1 R3M       0.046575
     94 H35          0.2290    42.8660    13.7580 h1         1 R3M       0.046575
     95 H36         -2.0620    43.4210    12.9550 hc         1 R3M       0.042783
     96 H37         -2.7570    42.8160    14.4660 hc         1 R3M       0.042783
     97 H38         -1.7480    44.2690    14.4760 hc         1 R3M       0.042783
     98 H39         -1.2320    41.1650    17.2520 h1         1 R3M       0.046575
     99 H40         -1.8080    40.7130    15.6690 h1         1 R3M       0.046575
    100 H41         -0.4170    38.8980    16.6750 hc         1 R3M       0.042783
    101 H42          0.3120    39.5060    15.1810 hc         1 R3M       0.042783
    102 H43          0.9760    39.9890    16.7450 hc         1 R3M       0.042783
    103 H44          0.4400    41.8370    18.2070 ha         1 R3M       0.129500
    104 H45          2.3980    42.5040    22.0550 ha         1 R3M       0.129500
    105 H46          4.4220    46.7910    20.7510 ha         1 R3M       0.123000
    106 H47          4.8800    45.9260    22.9640 ha         1 R3M       0.118000
    107 H48          3.5840    41.6030    23.4800 h1         1 R3M       0.046575
    108 H49          4.2520    41.8760    25.0690 h1         1 R3M       0.046575
    109 H50          1.8660    41.1950    25.2360 hc         1 R3M       0.042783
    110 H51          2.0820    42.8390    25.8560 hc         1 R3M       0.042783
    111 H52          1.3790    42.5840    24.2540 hc         1 R3M       0.042783
    112 H53          4.4710    45.3970    24.9100 h1         1 R3M       0.046575
    113 H54          4.4010    43.9960    25.9470 h1         1 R3M       0.046575
    114 H55          6.7620    44.7060    25.6090 hc         1 R3M       0.042783
    115 H56          6.5050    43.0960    24.9200 hc         1 R3M       0.042783
    116 H57          6.5910    44.5070    23.8600 hc         1 R3M       0.042783
@<TRIPOS>BOND
     1     1     2 2   
     2     2     3 1   
     3     2    30 1   
     4     3     4 1   
     5     4     5 1   
     6     4    60 1   
     7     4    61 1   
     8     5     6 1   
     9     5    62 1   
    10     5    63 1   
    11     6     7 1   
    12     7     8 1   
    13     7    64 1   
    14     7    65 1   
    15     8     9 1   
    16     8    66 1   
    17     8    67 1   
    18     9    10 1   
    19    10    11 1   
    20    10    68 1   
    21    10    69 1   
    22    11    12 1   
    23    11    70 1   
    24    11    71 1   
    25    12    13 1   
    26    12    14 1   
    27    13    29 2   
    28    14    15 2   
    29    14    72 1   
    30    15    16 1   
    31    15    29 1   
    32    16    17 1   
    33    16    73 1   
    34    16    74 1   
    35    17    18 1   
    36    18    19 1   
    37    18    28 1   
    38    18    75 1   
    39    19    20 1   
    40    19    21 1   
    41    19    76 1   
    42    20    77 1   
    43    21    22 1   
    44    21    23 1   
    45    21    78 1   
    46    22    79 1   
    47    23    24 1   
    48    23    25 1   
    49    23    80 1   
    50    24    81 1   
    51    25    26 1   
    52    25    28 1   
    53    25    82 1   
    54    26    27 1   
    55    26    83 1   
    56    26    84 1   
    57    27    85 1   
    58    30    31 ar  
    59    30    35 ar  
    60    31    32 ar  
    61    31    86 1   
    62    32    33 ar  
    63    32    87 1   
    64    33    34 ar  
    65    33    88 1   
    66    34    35 ar  
    67    34    89 1   
    68    35    36 1   
    69    36    37 1   
    70    36    51 1   
    71    36    90 1   
    72    37    38 ar  
    73    37    47 ar  
    74    38    39 ar  
    75    38    91 1   
    76    39    40 ar  
    77    39    92 1   
    78    40    41 1   
    79    40    46 ar  
    80    41    42 1   
    81    41    44 1   
    82    42    43 1   
    83    42    93 1   
    84    42    94 1   
    85    43    95 1   
    86    43    96 1   
    87    43    97 1   
    88    44    45 1   
    89    44    98 1   
    90    44    99 1   
    91    45   100 1   
    92    45   101 1   
    93    45   102 1   
    94    46    47 ar  
    95    46   103 1   
    96    47    48 1   
    97    48    49 1   
    98    49    50 ar  
    99    49    51 ar  
   100    50    54 ar  
   101    50   104 1   
   102    51    52 ar  
   103    52    53 ar  
   104    52   105 1   
   105    53    54 ar  
   106    53   106 1   
   107    54    55 1   
   108    55    56 1   
   109    55    58 1   
   110    56    57 1   
   111    56   107 1   
   112    56   108 1   
   113    57   109 1   
   114    57   110 1   
   115    57   111 1   
   116    58    59 1   
   117    58   112 1   
   118    58   113 1   
   119    59   114 1   
   120    59   115 1   
   121    59   116 1   
@<TRIPOS>SUBSTRUCTURE
     1 R3M         1 TEMP              0 ****  ****    0 ROOT
