@<TRIPOS>MOLECULE
R3N
   35    36     1     0     0
SMALL
No Charge or Current Charge


@<TRIPOS>ATOM
      1 O72        -16.7180    23.9260    -2.6070 o          1 R3N      -0.739000
      2 C7         -17.8600    24.1470    -2.9780 c          1 R3N       0.711000
      3 C6         -18.7360    25.1340    -2.1910 c3         1 R3N      -0.204700
      4 N4         -20.3770    25.2040    -0.3250 n2         1 R3N      -0.547900
      5 C5         -19.1780    24.4880    -0.8530 c5         1 R3N       0.307500
      6 C3         -20.3690    25.2780     0.9860 ce         1 R3N       0.320300
      7 C2         -19.1590    24.7430     1.7540 c5         1 R3N      -0.017000
      8 S1         -17.8570    24.5010     0.4540 ss         1 R3N      -0.519000
      9 C31        -21.4000    26.0510     1.8350 c          1 R3N       0.644700
     10 O71        -18.3370    23.6440    -3.9840 o          1 R3N      -0.739000
     11 C61        -18.0860    26.5380    -2.0930 c3         1 R3N       0.191300
     12 O62        -19.0270    27.4270    -1.4930 oh         1 R3N      -0.686000
     13 C62        -17.6700    27.1310    -3.4580 c3         1 R3N      -0.080100
     14 C14        -19.6280    23.4110     2.4700 c5         1 R3N       0.188300
     15 C15        -19.9920    22.2740     1.4800 c5         1 R3N      -0.108400
     16 C16        -20.0140    21.0910     2.4840 c5         1 R3N      -0.114400
     17 C17        -18.8590    21.4610     3.4700 c5         1 R3N       0.160600
     18 O18        -18.5180    22.8380     3.1820 os         1 R3N      -0.469000
     19 O32        -22.3590    26.5750     1.2760 o          1 R3N      -0.713500
     20 O31        -21.2500    26.1310     3.0500 o          1 R3N      -0.713500
     21 H2         -19.6530    25.2420    -2.7850 hc         1 R3N       0.062700
     22 H5         -19.4580    23.4440    -1.0500 h2         1 R3N       0.076700
     23 H111       -18.8060    25.4690     2.4980 h1         1 R3N       0.095700
     24 H8         -17.1850    26.4720    -1.4670 h1         1 R3N       0.035700
     25 H9         -19.6480    26.8330    -1.0060 ho         1 R3N       0.450000
     26 H11        -17.2740    28.1460    -3.3320 hc         1 R3N       0.025700
     27 H12        -16.8860    26.5270    -3.9290 hc         1 R3N       0.025700
     28 H10        -18.5250    27.1790    -4.1430 hc         1 R3N       0.025700
     29 H13        -20.4450    23.6000     3.1810 h1         1 R3N       0.072700
     30 H14        -19.2270    22.1040     0.7160 hc         1 R3N       0.069200
     31 H15        -20.9550    22.4240     0.9790 hc         1 R3N       0.069200
     32 H17        -20.9730    21.0350     3.0130 hc         1 R3N       0.030200
     33 H16        -19.8540    20.1230     1.9960 hc         1 R3N       0.030200
     34 H19        -19.1760    21.3730     4.5180 h1         1 R3N       0.028700
     35 H18        -17.9670    20.8380     3.3180 h1         1 R3N       0.028700
@<TRIPOS>BOND
     1     1     2 1   
     2     2     3 1   
     3     2    10 1   
     4     3     5 1   
     5     3    11 1   
     6     3    21 1   
     7     4     5 1   
     8     4     6 2   
     9     5     8 1   
    10     5    22 1   
    11     6     7 1   
    12     6     9 1   
    13     7     8 1   
    14     7    14 1   
    15     7    23 1   
    16     9    19 1   
    17     9    20 1   
    18    11    12 1   
    19    11    13 1   
    20    11    24 1   
    21    12    25 1   
    22    13    26 1   
    23    13    27 1   
    24    13    28 1   
    25    14    15 1   
    26    14    18 1   
    27    14    29 1   
    28    15    16 1   
    29    15    30 1   
    30    15    31 1   
    31    16    17 1   
    32    16    32 1   
    33    16    33 1   
    34    17    18 1   
    35    17    34 1   
    36    17    35 1   
@<TRIPOS>SUBSTRUCTURE
     1 R3N         1 TEMP              0 ****  ****    0 ROOT
