@<TRIPOS>MOLECULE
R3N
   35    36     1     0     0
SMALL
bcc


@<TRIPOS>ATOM
      1 O72        -17.0640    23.3930    -2.3320 o          1 R3N      -0.844300
      2 C7         -17.8280    24.0860    -3.0370 c          1 R3N       0.921600
      3 C6         -18.7130    25.0860    -2.2580 c3         1 R3N      -0.204700
      4 N4         -20.4880    25.0160    -0.5180 n2         1 R3N      -0.547900
      5 C5         -19.3080    24.3820    -1.0330 c5         1 R3N       0.259600
      6 C3         -20.5310    25.1750     0.7340 ce         1 R3N       0.320300
      7 C2         -19.3660    24.7050     1.5770 c5         1 R3N      -0.064900
      8 S1         -18.1090    24.2020     0.3660 ss         1 R3N      -0.423200
      9 C31        -21.7270    25.8580     1.4120 c          1 R3N       0.855300
     10 O71        -17.9270    24.0610    -4.2790 o          1 R3N      -0.844300
     11 C61        -17.8830    26.3510    -1.9520 c3         1 R3N       0.168100
     12 O62        -18.4620    27.1770    -0.9610 oh         1 R3N      -0.623800
     13 C62        -17.7050    27.2030    -3.1970 c3         1 R3N      -0.080100
     14 C14        -19.7690    23.5680     2.5180 c5         1 R3N       0.165100
     15 C15        -20.4070    22.3550     1.8470 c5         1 R3N      -0.108400
     16 C16        -19.9260    21.2080     2.7280 c5         1 R3N      -0.114400
     17 C17        -18.5270    21.6800     3.0910 c5         1 R3N       0.137400
     18 O18        -18.6140    23.0920     3.1970 os         1 R3N      -0.422600
     19 O32        -22.7880    25.8980     0.7720 o          1 R3N      -0.818800
     20 O31        -21.4880    26.3150     2.5450 o          1 R3N      -0.818800
     21 H2         -19.5680    25.3770    -2.8800 hc         1 R3N       0.062700
     22 H5         -19.6110    23.3780    -1.3470 h2         1 R3N       0.076700
     23 H111       -18.9840    25.5310     2.1810 h1         1 R3N       0.095700
     24 H8         -16.8910    26.0210    -1.6170 h1         1 R3N       0.035700
     25 H9         -18.3230    26.7350    -0.1160 ho         1 R3N       0.411000
     26 H11        -17.0630    28.0600    -2.9910 hc         1 R3N       0.025700
     27 H12        -17.2510    26.6280    -4.0010 hc         1 R3N       0.025700
     28 H10        -18.6680    27.5740    -3.5560 hc         1 R3N       0.025700
     29 H13        -20.4600    23.9900     3.2570 h1         1 R3N       0.072700
     30 H14        -20.0310    22.2260     0.8280 hc         1 R3N       0.069200
     31 H15        -21.4920    22.4390     1.7970 hc         1 R3N       0.069200
     32 H17        -20.5480    21.1190     3.6220 hc         1 R3N       0.030200
     33 H16        -19.9250    20.2440     2.2210 hc         1 R3N       0.030200
     34 H19        -18.1680    21.2720     4.0390 h1         1 R3N       0.028700
     35 H18        -17.8110    21.4000     2.3100 h1         1 R3N       0.028700
@<TRIPOS>BOND
     1     1     2 1   
     2     2     3 1   
     3     2    10 1   
     4     3     5 1   
     5     3    11 1   
     6     3    21 1   
     7     4     5 1   
     8     4     6 2   
     9     5     8 1   
    10     5    22 1   
    11     6     7 1   
    12     6     9 1   
    13     7     8 1   
    14     7    14 1   
    15     7    23 1   
    16     9    19 1   
    17     9    20 1   
    18    11    12 1   
    19    11    13 1   
    20    11    24 1   
    21    12    25 1   
    22    13    26 1   
    23    13    27 1   
    24    13    28 1   
    25    14    15 1   
    26    14    18 1   
    27    14    29 1   
    28    15    16 1   
    29    15    30 1   
    30    15    31 1   
    31    16    17 1   
    32    16    32 1   
    33    16    33 1   
    34    17    18 1   
    35    17    34 1   
    36    17    35 1   
@<TRIPOS>SUBSTRUCTURE
     1 R3N         1 TEMP              0 ****  ****    0 ROOT
