@<TRIPOS>MOLECULE
R3P
   40    41     1     0     0
SMALL
abcg2


@<TRIPOS>ATOM
      1 CL1        -11.2580   -16.5800    -4.9210 cl         1 R3P      -0.180500
      2 C14         -9.6920   -16.9900    -5.5320 ca         1 R3P       0.150000
      3 C13         -9.4200   -16.8080    -6.8780 ca         1 R3P      -0.106500
      4 C12         -8.1630   -17.1410    -7.3600 ca         1 R3P      -0.083000
      5 C11         -7.1910   -17.6510    -6.5130 ca         1 R3P      -0.106500
      6 C10         -7.4930   -17.8210    -5.1730 ca         1 R3P       0.150000
      7 CL          -6.2860   -18.4570    -4.1070 cl         1 R3P      -0.180500
      8 C9          -8.7420   -17.5020    -4.6570 ca         1 R3P      -0.147600
      9 C8          -9.0250   -17.6300    -3.1830 c          1 R3P       0.624700
     10 O           -8.7960   -16.6990    -2.4300 o          1 R3P      -0.573100
     11 N1          -9.5230   -18.8170    -2.8340 ns         1 R3P      -0.490900
     12 C5          -9.8160   -19.2460    -1.4740 c6         1 R3P       0.126700
     13 C4         -10.8520   -18.3870    -0.7590 c6         1 R3P      -0.122400
     14 C3         -11.2770   -19.0820     0.5440 c6         1 R3P       0.178300
     15 C6          -8.5520   -19.3880    -0.6100 c6         1 R3P      -0.122400
     16 C7          -8.9020   -19.1810     0.8680 c6         1 R3P       0.178300
     17 N          -10.1800   -19.7460     1.2590 n3         1 R3P      -0.742600
     18 C1         -10.2770   -21.2090     1.2580 c3         1 R3P       0.197500
     19 C2         -11.4460   -21.6490     2.1360 c3         1 R3P      -0.092100
     20 C           -9.0050   -21.8750     1.7720 c3         1 R3P      -0.092100
     21 H1         -10.1770   -16.4130    -7.5410 ha         1 R3P       0.136500
     22 H2          -7.9400   -17.0020    -8.4090 ha         1 R3P       0.125000
     23 H3          -6.2120   -17.9110    -6.8910 ha         1 R3P       0.136500
     24 H4          -9.6280   -19.5070    -3.5600 hn         1 R3P       0.318500
     25 H5         -10.2600   -20.2360    -1.6020 h1         1 R3P       0.043700
     26 H6         -10.4500   -17.3950    -0.5580 hc         1 R3P       0.058700
     27 H7         -11.7310   -18.2490    -1.3920 hc         1 R3P       0.058700
     28 H8         -11.7670   -18.3480     1.1920 h1         1 R3P       0.050200
     29 H9         -12.0400   -19.8250     0.3000 h1         1 R3P       0.050200
     30 H10         -8.1110   -20.3730    -0.7760 hc         1 R3P       0.058700
     31 H11         -7.7970   -18.6560    -0.9010 hc         1 R3P       0.058700
     32 H12         -8.1070   -19.5660     1.5060 h1         1 R3P       0.050200
     33 H13         -8.9430   -18.1090     1.0790 h1         1 R3P       0.050200
     34 H15        -10.4600   -21.5940     0.2390 h1         1 R3P       0.013700
     35 H16        -11.5640   -22.7330     2.0970 hc         1 R3P       0.037200
     36 H17        -11.2690   -21.3620     3.1750 hc         1 R3P       0.037200
     37 H18        -12.3940   -21.2090     1.8270 hc         1 R3P       0.037200
     38 H19         -8.1570   -21.7500     1.0990 hc         1 R3P       0.037200
     39 H20         -8.7260   -21.4860     2.7530 hc         1 R3P       0.037200
     40 H21         -9.1760   -22.9470     1.8760 hc         1 R3P       0.037200
@<TRIPOS>BOND
     1     1     2 1   
     2     2     3 ar  
     3     2     8 ar  
     4     3     4 ar  
     5     3    21 1   
     6     4     5 ar  
     7     4    22 1   
     8     5     6 ar  
     9     5    23 1   
    10     6     7 1   
    11     6     8 ar  
    12     8     9 1   
    13     9    10 2   
    14     9    11 1   
    15    11    12 1   
    16    11    24 1   
    17    12    13 1   
    18    12    15 1   
    19    12    25 1   
    20    13    14 1   
    21    13    26 1   
    22    13    27 1   
    23    14    17 1   
    24    14    28 1   
    25    14    29 1   
    26    15    16 1   
    27    15    30 1   
    28    15    31 1   
    29    16    17 1   
    30    16    32 1   
    31    16    33 1   
    32    17    18 1   
    33    18    19 1   
    34    18    20 1   
    35    18    34 1   
    36    19    35 1   
    37    19    36 1   
    38    19    37 1   
    39    20    38 1   
    40    20    39 1   
    41    20    40 1   
@<TRIPOS>SUBSTRUCTURE
     1 R3P         1 TEMP              0 ****  ****    0 ROOT
