@<TRIPOS>MOLECULE
R3P
   40    41     1     0     0
SMALL
No Charge or Current Charge


@<TRIPOS>ATOM
      1 Cl1        -10.7210   -15.4320    -4.7940 cl         1 R3P      -0.180500
      2 C14         -9.4790   -16.4860    -5.4750 ca         1 R3P       0.150000
      3 C13         -9.2070   -16.3700    -6.8480 ca         1 R3P      -0.106500
      4 C12         -8.2630   -17.2090    -7.4580 ca         1 R3P      -0.083000
      5 C11         -7.5880   -18.1670    -6.6870 ca         1 R3P      -0.106500
      6 C10         -7.8550   -18.2930    -5.3130 ca         1 R3P       0.150000
      7 Cl          -6.9050   -19.4750    -4.4080 cl         1 R3P      -0.180500
      8 C9          -8.8110   -17.4550    -4.6890 ca         1 R3P      -0.147600
      9 C8          -9.1100   -17.5670    -3.2220 c          1 R3P       0.624700
     10 O           -9.0530   -16.6040    -2.4700 o          1 R3P      -0.573100
     11 N1          -9.4100   -18.8380    -2.7750 ns         1 R3P      -0.490900
     12 C5          -9.7150   -19.2510    -1.3960 c6         1 R3P       0.126700
     13 C4         -10.9910   -18.5920    -0.8230 c6         1 R3P      -0.122400
     14 C3         -11.3260   -19.0720     0.6230 c6         1 R3P       0.178300
     15 C6          -8.4960   -19.1280    -0.4430 c6         1 R3P      -0.122400
     16 C7          -8.9180   -18.9910     1.0460 c6         1 R3P       0.178300
     17 N          -10.1830   -19.7270     1.3480 n3         1 R3P      -0.742600
     18 C1         -10.1030   -21.2270     1.2610 c3         1 R3P       0.197500
     19 C2         -11.3980   -21.9300     1.7470 c3         1 R3P      -0.092100
     20 C           -8.9010   -21.8120     2.0470 c3         1 R3P      -0.092100
     21 H1          -9.7360   -15.6290    -7.4430 ha         1 R3P       0.136500
     22 H2          -8.0530   -17.1150    -8.5210 ha         1 R3P       0.125000
     23 H3          -6.8460   -18.8100    -7.1540 ha         1 R3P       0.136500
     24 H4          -9.4050   -19.5590    -3.4860 hn         1 R3P       0.318500
     25 H5          -9.9470   -20.3220    -1.4750 h1         1 R3P       0.043700
     26 H6         -10.8620   -17.5020    -0.8010 hc         1 R3P       0.058700
     27 H7         -11.8470   -18.7840    -1.4830 hc         1 R3P       0.058700
     28 H8         -11.6500   -18.1880     1.1920 h1         1 R3P       0.050200
     29 H9         -12.2110   -19.7190     0.5800 h1         1 R3P       0.050200
     30 H10         -7.8540   -20.0100    -0.5690 hc         1 R3P       0.058700
     31 H11         -7.8750   -18.2620    -0.7060 hc         1 R3P       0.058700
     32 H12         -8.0910   -19.3010     1.7000 h1         1 R3P       0.050200
     33 H13         -9.0710   -17.9220     1.2570 h1         1 R3P       0.050200
     34 H15         -9.9620   -21.5300     0.2180 h1         1 R3P       0.013700
     35 H16        -11.2520   -23.0150     1.8090 hc         1 R3P       0.037200
     36 H17        -11.6880   -21.5680     2.7410 hc         1 R3P       0.037200
     37 H18        -12.2320   -21.7680     1.0570 hc         1 R3P       0.037200
     38 H19         -7.9460   -21.5140     1.6000 hc         1 R3P       0.037200
     39 H20         -8.9190   -21.4790     3.0920 hc         1 R3P       0.037200
     40 H21         -8.9250   -22.9080     2.0380 hc         1 R3P       0.037200
@<TRIPOS>BOND
     1     1     2 1   
     2     2     3 ar  
     3     2     8 ar  
     4     3     4 ar  
     5     3    21 1   
     6     4     5 ar  
     7     4    22 1   
     8     5     6 ar  
     9     5    23 1   
    10     6     7 1   
    11     6     8 ar  
    12     8     9 1   
    13     9    10 2   
    14     9    11 1   
    15    11    12 1   
    16    11    24 1   
    17    12    13 1   
    18    12    15 1   
    19    12    25 1   
    20    13    14 1   
    21    13    26 1   
    22    13    27 1   
    23    14    17 1   
    24    14    28 1   
    25    14    29 1   
    26    15    16 1   
    27    15    30 1   
    28    15    31 1   
    29    16    17 1   
    30    16    32 1   
    31    16    33 1   
    32    17    18 1   
    33    18    19 1   
    34    18    20 1   
    35    18    34 1   
    36    19    35 1   
    37    19    36 1   
    38    19    37 1   
    39    20    38 1   
    40    20    39 1   
    41    20    40 1   
@<TRIPOS>SUBSTRUCTURE
     1 R3P         1 TEMP              0 ****  ****    0 ROOT
