@<TRIPOS>MOLECULE
R3Q
   80    84     1     0     0
SMALL
abcg2


@<TRIPOS>ATOM
      1 C11         -1.7920     0.1340   -40.8630 c2         1 R3Q      -0.106400
      2 C12         -0.7480     0.8580   -40.4260 c2         1 R3Q      -0.117400
      3 C13          0.6400     0.5530   -40.9650 c6         1 R3Q       0.212500
      4 C14          0.8370    -0.9430   -41.2630 c6         1 R3Q      -0.105400
      5 C24          2.6500    -4.9930   -40.0990 ca         1 R3Q      -0.054500
      6 C25          3.8260    -5.7190   -39.9710 ca         1 R3Q      -0.127500
      7 C26          3.8400    -7.0820   -40.2540 ca         1 R3Q      -0.077000
      8 C27          2.6740    -7.7210   -40.6680 ca         1 R3Q      -0.127500
      9 C28          1.4970    -7.0000   -40.7990 ca         1 R3Q      -0.054500
     10 O22         -0.8430    -5.4010   -41.0290 o          1 R3Q      -0.471000
     11 O2           0.3160    -3.6140   -40.2760 os         1 R3Q      -0.463100
     12 O1          -0.1620    -2.6330   -42.7060 oh         1 R3Q      -0.654000
     13 C1          -0.4250    -1.7720   -41.5910 c6         1 R3Q       0.192000
     14 C2          -0.8180    -2.7260   -40.4030 c3         1 R3Q       0.156300
     15 C4          -0.3190    -2.7310   -37.8580 cy         1 R3Q       0.146000
     16 C5          -0.8770    -2.6800   -36.4090 cy         1 R3Q       0.150300
     17 C23          1.4780    -5.6320   -40.5140 ca         1 R3Q      -0.152600
     18 C3          -1.1420    -2.1020   -39.0040 c6         1 R3Q      -0.047700
     19 O5          -0.9360    -4.1370   -36.3620 oq         1 R3Q      -0.455000
     20 C8          -2.6710    -2.0580   -38.6540 c6         1 R3Q      -0.158000
     21 C9          -3.5430    -1.2410   -39.6260 c          1 R3Q       0.558100
     22 C10         -3.0680     0.1530   -40.0780 c3         1 R3Q       0.110500
     23 C15         -1.6000    -0.8500   -42.0220 c6         1 R3Q       0.012200
     24 O4           1.0440    -2.2520   -37.9410 os         1 R3Q      -0.447100
     25 C22          0.1940    -4.9010   -40.6510 c          1 R3Q       0.602700
     26 C41         -0.2910    -4.2510   -37.6490 cy         1 R3Q       0.148600
     27 C42          1.3340    -1.0280   -37.4590 c          1 R3Q       0.603100
     28 C43          2.8080    -0.7710   -37.4900 c3         1 R3Q      -0.146100
     29 C6          -2.2150    -2.0160   -36.1270 c6         1 R3Q      -0.073400
     30 C7          -2.7870    -1.2460   -37.3060 c6         1 R3Q       0.182300
     31 C81         -3.3130    -3.4430   -38.5170 c3         1 R3Q      -0.090100
     32 O10         -4.1290     0.8140   -40.7960 os         1 R3Q      -0.425100
     33 O13          1.6710     0.8940   -40.0330 oh         1 R3Q      -0.672000
     34 O41          0.4940    -0.2710   -37.0250 o          1 R3Q      -0.498000
     35 O7          -4.1310    -0.9270   -36.9710 oh         1 R3Q      -0.666000
     36 O9          -4.6590    -1.6060   -39.9070 o          1 R3Q      -0.487100
     37 C32         -5.1480     1.2780   -40.0530 c          1 R3Q       0.604100
     38 C33         -6.1960     1.9260   -40.9010 c3         1 R3Q      -0.152100
     39 C29         -0.8130     1.9420   -39.3910 c3         1 R3Q      -0.067900
     40 C30         -1.2540    -0.0650   -43.3090 c3         1 R3Q      -0.084100
     41 C31         -2.8400    -1.6780   -42.4070 c3         1 R3Q      -0.084100
     42 O11         -5.1890     1.1790   -38.8430 o          1 R3Q      -0.509000
     43 H3           0.8040     1.1400   -41.8720 h1         1 R3Q       0.047700
     44 H4           1.3390    -1.3740   -40.3990 hc         1 R3Q       0.068200
     45 H5           1.5290    -1.0350   -42.1000 hc         1 R3Q       0.068200
     46 H7           4.7310    -5.2220   -39.6480 ha         1 R3Q       0.119500
     47 H8           4.7580    -7.6460   -40.1510 ha         1 R3Q       0.117000
     48 H9           2.6850    -8.7810   -40.8870 ha         1 R3Q       0.119500
     49 H10          0.5850    -7.4850   -41.1180 ha         1 R3Q       0.135500
     50 H11          0.7310    -2.9870   -42.6230 ho         1 R3Q       0.449000
     51 H12         -1.6500    -3.3370   -40.7300 h1         1 R3Q       0.093700
     52 H13         -0.1150    -2.3330   -35.7140 h1         1 R3Q       0.072700
     53 H14         -0.8120    -1.0730   -39.0130 hc         1 R3Q       0.080700
     54 H15         -2.9050     0.7110   -39.1600 h1         1 R3Q       0.078700
     55 H16         -0.8820    -4.8590   -38.3300 h1         1 R3Q       0.070700
     56 H17          0.7220    -4.6470   -37.5720 h1         1 R3Q       0.070700
     57 H18          3.0000     0.2870   -37.3410 hc         1 R3Q       0.071033
     58 H19          3.2750    -1.3440   -36.6840 hc         1 R3Q       0.071033
     59 H20          3.2360    -1.1050   -38.4330 hc         1 R3Q       0.071033
     60 H21         -2.1240    -1.3250   -35.2890 hc         1 R3Q       0.075200
     61 H22         -2.9260    -2.7890   -35.8330 hc         1 R3Q       0.075200
     62 H23         -2.2110    -0.3270   -37.4310 h1         1 R3Q       0.042700
     63 H24         -2.7980    -4.0540   -37.7830 hc         1 R3Q       0.057367
     64 H25         -4.3470    -3.3400   -38.1980 hc         1 R3Q       0.057367
     65 H26         -3.3120    -3.9690   -39.4710 hc         1 R3Q       0.057367
     66 H27          1.8000     1.8500   -40.0400 ho         1 R3Q       0.447000
     67 H28         -4.4430    -0.1830   -37.5120 ho         1 R3Q       0.472000
     68 H29         -6.9570     2.3770   -40.2710 hc         1 R3Q       0.074700
     69 H30         -5.7410     2.6800   -41.5450 hc         1 R3Q       0.074700
     70 H31         -6.6500     1.1710   -41.5460 hc         1 R3Q       0.074700
     71 H32         -1.8260     2.2900   -39.2060 hc         1 R3Q       0.055033
     72 H33         -0.3710     1.6180   -38.4470 hc         1 R3Q       0.055033
     73 H34         -0.2350     2.8050   -39.7330 hc         1 R3Q       0.055033
     74 H35         -0.3810     0.5720   -43.2190 hc         1 R3Q       0.046367
     75 H36         -1.0860    -0.7550   -44.1330 hc         1 R3Q       0.046367
     76 H37         -2.1030     0.5730   -43.5620 hc         1 R3Q       0.046367
     77 H38         -3.1320    -2.4280   -41.6830 hc         1 R3Q       0.046367
     78 H39         -3.6940    -1.0230   -42.5750 hc         1 R3Q       0.046367
     79 H40         -2.6280    -2.2030   -43.3370 hc         1 R3Q       0.046367
     80 H6           2.6340    -3.9370   -39.8730 ha         1 R3Q       0.135500
@<TRIPOS>BOND
     1     1     2 2   
     2     1    22 1   
     3     1    23 1   
     4     2     3 1   
     5     2    39 1   
     6     3     4 1   
     7     3    33 1   
     8     3    43 1   
     9     4    13 1   
    10     4    44 1   
    11     4    45 1   
    12     5     6 ar  
    13     5    17 ar  
    14     5    80 1   
    15     6     7 ar  
    16     6    46 1   
    17     7     8 ar  
    18     7    47 1   
    19     8     9 ar  
    20     8    48 1   
    21     9    17 ar  
    22     9    49 1   
    23    10    25 2   
    24    11    14 1   
    25    11    25 1   
    26    12    13 1   
    27    12    50 1   
    28    13    14 1   
    29    13    23 1   
    30    14    18 1   
    31    14    51 1   
    32    15    16 1   
    33    15    18 1   
    34    15    24 1   
    35    15    26 1   
    36    16    19 1   
    37    16    29 1   
    38    16    52 1   
    39    17    25 1   
    40    18    20 1   
    41    18    53 1   
    42    19    26 1   
    43    20    21 1   
    44    20    30 1   
    45    20    31 1   
    46    21    22 1   
    47    21    36 2   
    48    22    32 1   
    49    22    54 1   
    50    23    40 1   
    51    23    41 1   
    52    24    27 1   
    53    26    55 1   
    54    26    56 1   
    55    27    28 1   
    56    27    34 2   
    57    28    57 1   
    58    28    58 1   
    59    28    59 1   
    60    29    30 1   
    61    29    60 1   
    62    29    61 1   
    63    30    35 1   
    64    30    62 1   
    65    31    63 1   
    66    31    64 1   
    67    31    65 1   
    68    32    37 1   
    69    33    66 1   
    70    35    67 1   
    71    37    38 1   
    72    37    42 2   
    73    38    68 1   
    74    38    69 1   
    75    38    70 1   
    76    39    71 1   
    77    39    72 1   
    78    39    73 1   
    79    40    74 1   
    80    40    75 1   
    81    40    76 1   
    82    41    77 1   
    83    41    78 1   
    84    41    79 1   
@<TRIPOS>SUBSTRUCTURE
     1 R3Q         1 TEMP              0 ****  ****    0 ROOT
