@<TRIPOS>MOLECULE
R3Q
   80    84     1     0     0
SMALL
No Charge or Current Charge


@<TRIPOS>ATOM
      1 C11         -1.8090     0.2600   -40.9000 c2         1 R3Q      -0.106400
      2 C12         -0.7780     1.0340   -40.4730 c2         1 R3Q      -0.117400
      3 C13          0.6540     0.7540   -40.9750 c6         1 R3Q       0.212500
      4 C14          0.8910    -0.7610   -41.2980 c6         1 R3Q      -0.105400
      5 C24          2.6770    -5.1500   -40.0590 ca         1 R3Q      -0.054500
      6 C25          3.8430    -5.9240   -39.9240 ca         1 R3Q      -0.127500
      7 C26          3.7770    -7.3240   -40.0120 ca         1 R3Q      -0.077000
      8 C27          2.5410    -7.9520   -40.2350 ca         1 R3Q      -0.127500
      9 C28          1.3720    -7.1830   -40.3700 ca         1 R3Q      -0.054500
     10 O22         -0.9480    -5.4710   -40.4780 o          1 R3Q      -0.471000
     11 O2           0.3860    -3.6060   -40.4270 os         1 R3Q      -0.463100
     12 O1           0.0070    -2.4410   -42.8000 oh         1 R3Q      -0.654000
     13 C1          -0.3690    -1.6320   -41.6710 c6         1 R3Q       0.192000
     14 C2          -0.7270    -2.6760   -40.4970 c3         1 R3Q       0.156300
     15 C4          -0.1560    -2.6750   -37.8160 cy         1 R3Q       0.146000
     16 C5          -0.7270    -2.5130   -36.3400 cy         1 R3Q       0.150300
     17 C23          1.4270    -5.7730   -40.2860 ca         1 R3Q      -0.152600
     18 C3          -1.1440    -2.1840   -39.0230 c6         1 R3Q      -0.047700
     19 O5          -0.1030    -3.8070   -36.0100 oq         1 R3Q      -0.455000
     20 C8          -2.7400    -2.2280   -38.7360 c6         1 R3Q      -0.158000
     21 C9          -3.6070    -1.3020   -39.6940 c          1 R3Q       0.558100
     22 C10         -3.0960     0.1480   -40.0530 c3         1 R3Q       0.110500
     23 C15         -1.5840    -0.7140   -42.0920 c6         1 R3Q       0.012200
     24 O4           1.2260    -2.2080   -37.9750 os         1 R3Q      -0.447100
     25 C22          0.1620    -4.9620   -40.4240 c          1 R3Q       0.602700
     26 C41         -0.1620    -4.2010   -37.4290 cy         1 R3Q       0.148600
     27 C42          1.5270    -0.9160   -37.6200 c          1 R3Q       0.603100
     28 C43          3.0180    -0.6460   -37.7570 c3         1 R3Q      -0.146100
     29 C6          -2.2690    -2.5000   -36.2080 c6         1 R3Q      -0.073400
     30 C7          -2.9340    -1.6330   -37.2960 c6         1 R3Q       0.182300
     31 C81         -3.3670    -3.6790   -38.8580 c3         1 R3Q      -0.090100
     32 O10         -4.1080     0.9600   -40.6920 os         1 R3Q      -0.425100
     33 O13          1.6550     1.1770   -40.0420 oh         1 R3Q      -0.672000
     34 O41          0.7250    -0.0850   -37.2200 o          1 R3Q      -0.498000
     35 O7          -4.3250    -1.5040   -36.9790 oh         1 R3Q      -0.666000
     36 O9          -4.6760    -1.6990   -40.1570 o          1 R3Q      -0.487100
     37 C32         -5.1880     1.3440   -39.9400 c          1 R3Q       0.604100
     38 C33         -6.1800     2.1560   -40.7570 c3         1 R3Q      -0.152100
     39 C29         -0.8950     2.1370   -39.4160 c3         1 R3Q      -0.067900
     40 C30         -1.3120     0.1500   -43.3880 c3         1 R3Q      -0.084100
     41 C31         -2.8410    -1.5390   -42.5760 c3         1 R3Q      -0.084100
     42 O11         -5.3370     1.0770   -38.7540 o          1 R3Q      -0.509000
     43 H3           0.8100     1.3360   -41.8920 h1         1 R3Q       0.047700
     44 H4           1.3810    -1.2390   -40.4430 hc         1 R3Q       0.068200
     45 H5           1.6390    -0.8100   -42.1010 hc         1 R3Q       0.068200
     46 H7           4.7990    -5.4370   -39.7480 ha         1 R3Q       0.119500
     47 H8           4.6810    -7.9200   -39.9070 ha         1 R3Q       0.117000
     48 H9           2.4880    -9.0360   -40.3020 ha         1 R3Q       0.119500
     49 H10          0.4220    -7.6870   -40.5410 ha         1 R3Q       0.135500
     50 H11          0.5840    -3.1410   -42.4250 ho         1 R3Q       0.449000
     51 H12         -1.5890    -3.2210   -40.8830 h1         1 R3Q       0.093700
     52 H13         -0.2760    -1.7080   -35.7510 h1         1 R3Q       0.072700
     53 H14         -0.8980    -1.1230   -39.0350 hc         1 R3Q       0.080700
     54 H15         -2.8710     0.5730   -39.0700 h1         1 R3Q       0.078700
     55 H16         -1.0540    -4.7830   -37.6470 h1         1 R3Q       0.070700
     56 H17          0.7350    -4.7540   -37.7280 h1         1 R3Q       0.070700
     57 H18          3.2860     0.3820   -37.4910 hc         1 R3Q       0.071033
     58 H19          3.5640    -1.3790   -37.1530 hc         1 R3Q       0.071033
     59 H20          3.3330    -0.9030   -38.7740 hc         1 R3Q       0.071033
     60 H21         -2.5260    -2.0830   -35.2240 hc         1 R3Q       0.075200
     61 H22         -2.6820    -3.5160   -36.2010 hc         1 R3Q       0.075200
     62 H23         -2.4640    -0.6380   -37.2530 h1         1 R3Q       0.042700
     63 H24         -2.9100    -4.4310   -38.2210 hc         1 R3Q       0.057367
     64 H25         -4.4280    -3.6820   -38.5760 hc         1 R3Q       0.057367
     65 H26         -3.3220    -4.0640   -39.8830 hc         1 R3Q       0.057367
     66 H27          1.7470     2.1490   -40.1380 ho         1 R3Q       0.447000
     67 H28         -4.6050    -0.5850   -37.1950 ho         1 R3Q       0.472000
     68 H29         -7.0460     2.4790   -40.1690 hc         1 R3Q       0.074700
     69 H30         -5.6540     3.0030   -41.2100 hc         1 R3Q       0.074700
     70 H31         -6.4760     1.5710   -41.6340 hc         1 R3Q       0.074700
     71 H32         -1.9270     2.4710   -39.2630 hc         1 R3Q       0.055033
     72 H33         -0.5010     1.8190   -38.4460 hc         1 R3Q       0.055033
     73 H34         -0.3420     3.0320   -39.7240 hc         1 R3Q       0.055033
     74 H35         -0.4180     0.7690   -43.3620 hc         1 R3Q       0.046367
     75 H36         -1.1930    -0.4760   -44.2810 hc         1 R3Q       0.046367
     76 H37         -2.1500     0.8290   -43.5840 hc         1 R3Q       0.046367
     77 H38         -3.1140    -2.3810   -41.9420 hc         1 R3Q       0.046367
     78 H39         -3.7250    -0.9000   -42.6910 hc         1 R3Q       0.046367
     79 H40         -2.6650    -2.0000   -43.5560 hc         1 R3Q       0.046367
     80 H6           2.7550    -4.0680   -39.9790 ha         1 R3Q       0.135500
@<TRIPOS>BOND
     1     1     2 2   
     2     1    22 1   
     3     1    23 1   
     4     2     3 1   
     5     2    39 1   
     6     3     4 1   
     7     3    33 1   
     8     3    43 1   
     9     4    13 1   
    10     4    44 1   
    11     4    45 1   
    12     5     6 ar  
    13     5    17 ar  
    14     5    80 1   
    15     6     7 ar  
    16     6    46 1   
    17     7     8 ar  
    18     7    47 1   
    19     8     9 ar  
    20     8    48 1   
    21     9    17 ar  
    22     9    49 1   
    23    10    25 2   
    24    11    14 1   
    25    11    25 1   
    26    12    13 1   
    27    12    50 1   
    28    13    14 1   
    29    13    23 1   
    30    14    18 1   
    31    14    51 1   
    32    15    16 1   
    33    15    18 1   
    34    15    24 1   
    35    15    26 1   
    36    16    19 1   
    37    16    29 1   
    38    16    52 1   
    39    17    25 1   
    40    18    20 1   
    41    18    53 1   
    42    19    26 1   
    43    20    21 1   
    44    20    30 1   
    45    20    31 1   
    46    21    22 1   
    47    21    36 2   
    48    22    32 1   
    49    22    54 1   
    50    23    40 1   
    51    23    41 1   
    52    24    27 1   
    53    26    55 1   
    54    26    56 1   
    55    27    28 1   
    56    27    34 2   
    57    28    57 1   
    58    28    58 1   
    59    28    59 1   
    60    29    30 1   
    61    29    60 1   
    62    29    61 1   
    63    30    35 1   
    64    30    62 1   
    65    31    63 1   
    66    31    64 1   
    67    31    65 1   
    68    32    37 1   
    69    33    66 1   
    70    35    67 1   
    71    37    38 1   
    72    37    42 2   
    73    38    68 1   
    74    38    69 1   
    75    38    70 1   
    76    39    71 1   
    77    39    72 1   
    78    39    73 1   
    79    40    74 1   
    80    40    75 1   
    81    40    76 1   
    82    41    77 1   
    83    41    78 1   
    84    41    79 1   
@<TRIPOS>SUBSTRUCTURE
     1 R3Q         1 TEMP              0 ****  ****    0 ROOT
