@<TRIPOS>MOLECULE
R3R
   32    34     1     0     0
SMALL
abcg2


@<TRIPOS>ATOM
      1 C10         -0.3350    39.3150    -1.0920 c          1 R3R       0.585500
      2 C13         -1.9630    39.3920     2.2830 cp         1 R3R      -0.098000
      3 C15         -3.0900    39.7040     4.2700 ca         1 R3R      -0.051000
      4 C17         -2.9000    38.3270     6.2140 ca         1 R3R      -0.087000
      5 C02         -4.3550    41.8130     3.5700 c          1 R3R       0.620100
      6 C03         -4.8310    42.0910     4.9740 c3         1 R3R      -0.152400
      7 C04         -5.5340    43.4360     5.0960 c3         1 R3R      -0.081100
      8 C06         -2.8210    40.5080     2.1350 ca         1 R3R      -0.022000
      9 C07         -2.8720    41.2130     0.9320 ca         1 R3R      -0.122000
     10 C08         -2.0500    40.7870    -0.1010 ca         1 R3R      -0.050000
     11 C09         -1.1890    39.6890     0.0400 ca         1 R3R      -0.224600
     12 C12         -1.1480    38.9830     1.2440 ca         1 R3R       0.000000
     13 C14         -2.1400    38.8850     3.6250 cp         1 R3R      -0.064000
     14 C16         -3.4850    39.4160     5.5740 ca         1 R3R      -0.131000
     15 C18         -1.9460    37.5260     5.5840 ca         1 R3R      -0.125000
     16 C19         -1.5650    37.8000     4.2790 ca         1 R3R      -0.059000
     17 N05         -3.5030    40.7190     3.3540 n          1 R3R      -0.018000
     18 O01         -4.6750    42.5220     2.6360 o          1 R3R      -0.550100
     19 O11          0.4790    38.4080    -1.0910 o          1 R3R      -0.527100
     20 H101        -0.4720    39.9380    -1.9960 h4         1 R3R      -0.010800
     21 H171        -3.2030    38.1010     7.2280 ha         1 R3R       0.116000
     22 H032        -5.5110    41.2850     5.2650 hc         1 R3R       0.070200
     23 H031        -3.9790    42.0390     5.6540 hc         1 R3R       0.070200
     24 H042        -5.8560    43.5840     6.1270 hc         1 R3R       0.047700
     25 H041        -4.8670    44.2540     4.8240 hc         1 R3R       0.047700
     26 H043        -6.4110    43.4850     4.4520 hc         1 R3R       0.047700
     27 H071        -3.5250    42.0570     0.8030 ha         1 R3R       0.153000
     28 H081        -2.0710    41.3190    -1.0440 ha         1 R3R       0.118000
     29 H121        -0.4850    38.1350     1.3540 ha         1 R3R       0.136000
     30 H161        -4.2230    39.9890     6.1050 ha         1 R3R       0.119000
     31 H181        -1.5120    36.6880     6.1130 ha         1 R3R       0.120000
     32 H191        -0.8360    37.1820     3.7710 ha         1 R3R       0.124000
@<TRIPOS>BOND
     1     1    11 1   
     2     1    19 2   
     3     1    20 1   
     4     2     8 ar  
     5     2    12 ar  
     6     2    13 1   
     7     3    13 ar  
     8     3    14 ar  
     9     3    17 1   
    10     4    14 ar  
    11     4    15 ar  
    12     4    21 1   
    13     5     6 1   
    14     5    17 1   
    15     5    18 2   
    16     6     7 1   
    17     6    22 1   
    18     6    23 1   
    19     7    24 1   
    20     7    25 1   
    21     7    26 1   
    22     8     9 ar  
    23     8    17 1   
    24     9    10 ar  
    25     9    27 1   
    26    10    11 ar  
    27    10    28 1   
    28    11    12 ar  
    29    12    29 1   
    30    13    16 ar  
    31    14    30 1   
    32    15    16 ar  
    33    15    31 1   
    34    16    32 1   
@<TRIPOS>SUBSTRUCTURE
     1 R3R         1 TEMP              0 ****  ****    0 ROOT
