@<TRIPOS>MOLECULE
R3R
   32    34     1     0     0
SMALL
No Charge or Current Charge


@<TRIPOS>ATOM
      1 C10         -0.2260    39.3970    -1.0810 c          1 R3R       0.585500
      2 C13         -1.9880    39.4460     2.3050 cp         1 R3R      -0.098000
      3 C15         -3.1680    39.6070     4.3090 ca         1 R3R      -0.051000
      4 C17         -2.9310    38.1770     6.2410 ca         1 R3R      -0.087000
      5 C02         -4.6650    41.5630     3.5700 c          1 R3R       0.620100
      6 C03         -4.8870    42.1300     4.9870 c3         1 R3R      -0.152400
      7 C04         -5.2840    43.6250     5.0270 c3         1 R3R      -0.081100
      8 C06         -2.8940    40.4850     2.1090 ca         1 R3R      -0.022000
      9 C07         -2.9540    41.2070     0.9080 ca         1 R3R      -0.122000
     10 C08         -2.0730    40.8350    -0.1300 ca         1 R3R      -0.050000
     11 C09         -1.1520    39.7690     0.0440 ca         1 R3R      -0.224600
     12 C12         -1.1060    39.0680     1.2740 ca         1 R3R       0.000000
     13 C14         -2.1560    38.9070     3.6480 cp         1 R3R      -0.064000
     14 C16         -3.5910    39.2480     5.6020 ca         1 R3R      -0.131000
     15 C18         -1.8880    37.4800     5.5880 ca         1 R3R      -0.125000
     16 C19         -1.4980    37.8350     4.2810 ca         1 R3R      -0.059000
     17 N05         -3.6190    40.6240     3.3630 n          1 R3R      -0.018000
     18 O01         -5.3470    41.9780     2.6360 o          1 R3R      -0.550100
     19 O11          0.5970    38.4900    -1.0040 o          1 R3R      -0.527100
     20 H101        -0.3250    39.9980    -2.0120 h4         1 R3R      -0.010800
     21 H171        -3.2330    37.8790     7.2430 ha         1 R3R       0.116000
     22 H032        -5.6770    41.5330     5.4560 hc         1 R3R       0.070200
     23 H031        -3.9930    41.9550     5.5950 hc         1 R3R       0.070200
     24 H042        -5.4070    43.9600     6.0640 hc         1 R3R       0.047700
     25 H041        -4.5100    44.2440     4.5570 hc         1 R3R       0.047700
     26 H043        -6.2310    43.7950     4.5010 hc         1 R3R       0.047700
     27 H071        -3.6470    42.0330     0.7680 ha         1 R3R       0.153000
     28 H081        -2.1050    41.3800    -1.0720 ha         1 R3R       0.118000
     29 H121        -0.4040    38.2510     1.4290 ha         1 R3R       0.136000
     30 H161        -4.4070    39.7500     6.1120 ha         1 R3R       0.119000
     31 H181        -1.3930    36.6530     6.0930 ha         1 R3R       0.120000
     32 H191        -0.7100    37.2860     3.7700 ha         1 R3R       0.124000
@<TRIPOS>BOND
     1     1    11 1   
     2     1    19 2   
     3     1    20 1   
     4     2     8 ar  
     5     2    12 ar  
     6     2    13 1   
     7     3    13 ar  
     8     3    14 ar  
     9     3    17 1   
    10     4    14 ar  
    11     4    15 ar  
    12     4    21 1   
    13     5     6 1   
    14     5    17 1   
    15     5    18 2   
    16     6     7 1   
    17     6    22 1   
    18     6    23 1   
    19     7    24 1   
    20     7    25 1   
    21     7    26 1   
    22     8     9 ar  
    23     8    17 1   
    24     9    10 ar  
    25     9    27 1   
    26    10    11 ar  
    27    10    28 1   
    28    11    12 ar  
    29    12    29 1   
    30    13    16 ar  
    31    14    30 1   
    32    15    16 ar  
    33    15    31 1   
    34    16    32 1   
@<TRIPOS>SUBSTRUCTURE
     1 R3R         1 TEMP              0 ****  ****    0 ROOT
