@<TRIPOS>MOLECULE
R3S
   32    33     1     0     0
SMALL
No Charge or Current Charge


@<TRIPOS>ATOM
      1 C01         -6.0870    -0.6080    -0.3880 ca         1 R3S      -0.176000
      2 C02         -4.7670    -1.0920    -0.3780 ca         1 R3S      -0.069500
      3 C03         -3.6990    -0.2550     0.0050 ca         1 R3S      -0.060800
      4 C04         -3.9770     1.0770     0.3810 ca         1 R3S      -0.069500
      5 C05         -5.2990     1.5600     0.3700 ca         1 R3S      -0.176000
      6 C06         -6.3520     0.7160    -0.0150 ca         1 R3S       0.123100
      7 C07         -2.3090    -0.8030     0.0050 ce         1 R3S      -0.195200
      8 C08         -1.1290    -0.1720     0.2740 cf         1 R3S      -0.107200
      9 C09          0.2480    -0.7100     0.2740 ca         1 R3S      -0.031800
     10 C10          0.5260    -2.0600    -0.0320 ca         1 R3S      -0.225000
     11 C11          1.8450    -2.5390    -0.0110 ca         1 R3S       0.133100
     12 C12          2.9040    -1.6800     0.3070 ca         1 R3S      -0.154000
     13 C13          2.6450    -0.3320     0.5930 ca         1 R3S       0.219100
     14 C14          1.3230     0.1460     0.5920 ca         1 R3S      -0.140000
     15 O15          3.6780     0.4960     0.9390 os         1 R3S      -0.482800
     16 O16          2.0980    -3.8450    -0.2970 oh         1 R3S      -0.540100
     17 O17         -7.6340     1.1780    -0.0270 oh         1 R3S      -0.541100
     18 S18          4.3150     1.4640    -0.2260 s6         1 R3S       1.489300
     19 O19          4.5940     0.5560    -1.3500 o          1 R3S      -0.691533
     20 O20          3.2580     2.4500    -0.4990 o          1 R3S      -0.691533
     21 O21          5.5170     2.0310     0.4050 o          1 R3S      -0.691533
     22 H10         -0.2790    -2.7450    -0.2800 ha         1 R3S       0.094000
     23 H01         -6.9020    -1.2620    -0.6870 ha         1 R3S       0.113500
     24 H02         -4.5760    -2.1220    -0.6710 ha         1 R3S       0.114500
     25 H12          3.9240    -2.0520     0.3280 ha         1 R3S       0.150000
     26 H04         -3.1800     1.7490     0.6860 ha         1 R3S       0.114500
     27 H14          1.1370     1.1870     0.8420 ha         1 R3S       0.132000
     28 H05         -5.4950     2.5880     0.6630 ha         1 R3S       0.113500
     29 HO16         1.2440    -4.2860    -0.4920 ho         1 R3S       0.448000
     30 H07         -2.2680    -1.8600    -0.2540 ha         1 R3S       0.167000
     31 HO17        -7.6280     2.1160     0.2610 ho         1 R3S       0.460000
     32 H08         -1.1740     0.8870     0.5270 ha         1 R3S       0.172000
@<TRIPOS>BOND
     1     1     2 ar  
     2     1     6 ar  
     3     1    23 1   
     4     2     3 ar  
     5     2    24 1   
     6     3     4 ar  
     7     3     7 1   
     8     4     5 ar  
     9     4    26 1   
    10     5     6 ar  
    11     5    28 1   
    12     6    17 1   
    13     7     8 2   
    14     7    30 1   
    15     8     9 1   
    16     8    32 1   
    17     9    10 ar  
    18     9    14 ar  
    19    10    11 ar  
    20    10    22 1   
    21    11    12 ar  
    22    11    16 1   
    23    12    13 ar  
    24    12    25 1   
    25    13    14 ar  
    26    13    15 1   
    27    14    27 1   
    28    15    18 1   
    29    16    29 1   
    30    17    31 1   
    31    18    19 1   
    32    18    20 1   
    33    18    21 1   
@<TRIPOS>SUBSTRUCTURE
     1 R3S         1 TEMP              0 ****  ****    0 ROOT
