@<TRIPOS>MOLECULE
R3S
   32    33     1     0     0
SMALL
abcg2


@<TRIPOS>ATOM
      1 C01         -6.0260    -0.6080    -0.3580 ca         1 R3S      -0.176000
      2 C02         -4.7200    -1.0660    -0.3520 ca         1 R3S      -0.069500
      3 C03         -3.6500    -0.2460     0.0200 ca         1 R3S      -0.060800
      4 C04         -3.9500     1.0680     0.3960 ca         1 R3S      -0.069500
      5 C05         -5.2490     1.5400     0.3970 ca         1 R3S      -0.176000
      6 C06         -6.3010     0.7050     0.0180 ca         1 R3S       0.123100
      7 C07         -2.2970    -0.7920     0.0030 ce         1 R3S      -0.195200
      8 C08         -1.1650    -0.1240     0.2670 cf         1 R3S      -0.107200
      9 C09          0.1890    -0.6750     0.2560 ca         1 R3S      -0.031800
     10 C10          0.4650    -2.0080    -0.0650 ca         1 R3S      -0.225000
     11 C11          1.7710    -2.4760    -0.0590 ca         1 R3S       0.133100
     12 C12          2.8280    -1.6250     0.2640 ca         1 R3S      -0.154000
     13 C13          2.5470    -0.3090     0.5900 ca         1 R3S       0.219100
     14 C14          1.2460     0.1750     0.5780 ca         1 R3S      -0.140000
     15 O15          3.5640     0.5210     0.9740 os         1 R3S      -0.482800
     16 O16          2.0810    -3.7520    -0.3620 oh         1 R3S      -0.540100
     17 O17         -7.5830     1.1140    -0.0010 oh         1 R3S      -0.541100
     18 S18          4.3700     1.3690    -0.2300 s6         1 R3S       1.489300
     19 O19          5.0420     0.3450    -1.0250 o          1 R3S      -0.691533
     20 O20          3.3210     2.0920    -0.9440 o          1 R3S      -0.691533
     21 O21          5.2480     2.1920     0.5930 o          1 R3S      -0.691533
     22 H10         -0.3380    -2.6910    -0.3180 ha         1 R3S       0.094000
     23 H01         -6.8350    -1.2650    -0.6510 ha         1 R3S       0.113500
     24 H02         -4.5260    -2.0910    -0.6460 ha         1 R3S       0.114500
     25 H12          3.8450    -1.9950     0.2810 ha         1 R3S       0.150000
     26 H04         -3.1620     1.7450     0.7000 ha         1 R3S       0.114500
     27 H14          1.0570     1.2100     0.8320 ha         1 R3S       0.132000
     28 H05         -5.4470     2.5620     0.6990 ha         1 R3S       0.113500
     29 HO16         1.2820    -4.2530    -0.5590 ho         1 R3S       0.448000
     30 H07         -2.2420    -1.8460    -0.2530 ha         1 R3S       0.167000
     31 HO17        -7.6490     2.0320     0.2860 ho         1 R3S       0.460000
     32 H08         -1.2190     0.9310     0.5160 ha         1 R3S       0.172000
@<TRIPOS>BOND
     1     1     2 ar  
     2     1     6 ar  
     3     1    23 1   
     4     2     3 ar  
     5     2    24 1   
     6     3     4 ar  
     7     3     7 1   
     8     4     5 ar  
     9     4    26 1   
    10     5     6 ar  
    11     5    28 1   
    12     6    17 1   
    13     7     8 2   
    14     7    30 1   
    15     8     9 1   
    16     8    32 1   
    17     9    10 ar  
    18     9    14 ar  
    19    10    11 ar  
    20    10    22 1   
    21    11    12 ar  
    22    11    16 1   
    23    12    13 ar  
    24    12    25 1   
    25    13    14 ar  
    26    13    15 1   
    27    14    27 1   
    28    15    18 1   
    29    16    29 1   
    30    17    31 1   
    31    18    19 1   
    32    18    20 1   
    33    18    21 1   
@<TRIPOS>SUBSTRUCTURE
     1 R3S         1 TEMP              0 ****  ****    0 ROOT
