@<TRIPOS>MOLECULE
R3T
  101   106     1     0     0
SMALL
abcg2


@<TRIPOS>ATOM
      1 C1          -0.8170    -1.5780   -41.4400 c6         1 R3T       0.191000
      2 C5          -1.6480    -3.0110   -36.4030 cy         1 R3T       0.150300
      3 C6          -3.1460    -2.8150   -36.2900 c6         1 R3T      -0.083400
      4 O7          -5.1760    -2.1270   -37.2610 oh         1 R3T      -0.672000
      5 C9          -4.2240    -1.8660   -39.8240 c          1 R3T       0.540100
      6 C10         -4.0330    -0.4070   -40.2580 c3         1 R3T       0.127500
      7 C15         -2.1530    -0.9840   -41.9750 c6         1 R3T      -0.027800
      8 C16         -3.1040    -2.1040   -42.4330 c3         1 R3T      -0.090600
      9 C17         -1.9280    -0.1410   -43.2520 c3         1 R3T      -0.090600
     10 C19         -3.5430    -4.1070   -38.9740 c3         1 R3T      -0.094100
     11 C20         -0.4920    -4.1970   -37.6690 cy         1 R3T       0.151600
     12 C22          2.1550    -4.4770   -40.3210 ca         1 R3T      -0.148600
     13 C23          2.9170    -3.5380   -39.6210 ca         1 R3T      -0.049000
     14 C24          4.2630    -3.7780   -39.3820 ca         1 R3T      -0.126500
     15 C25          4.8540    -4.9540   -39.8370 ca         1 R3T      -0.077000
     16 C26          4.0980    -5.8910   -40.5360 ca         1 R3T      -0.126500
     17 C27          2.7520    -5.6540   -40.7790 ca         1 R3T      -0.049000
     18 C28          0.0680    -0.6740   -37.0260 c          1 R3T       0.596100
     19 C11         -2.6880    -0.1040   -40.8390 c2         1 R3T      -0.106400
     20 C13         -0.4800     0.9160   -40.7870 c6         1 R3T       0.207500
     21 C14          0.1460    -0.4690   -40.9610 c6         1 R3T      -0.075400
     22 C2          -1.0580    -2.6550   -40.3170 c3         1 R3T       0.150300
     23 C29          1.3840     0.0210   -36.8720 c3         1 R3T      -0.158100
     24 C3          -1.7480    -2.2300   -38.9740 c6         1 R3T      -0.038700
     25 C30          0.6660     2.8850   -40.0660 c          1 R3T       0.564100
     26 C31          1.7460     3.4070   -39.1300 c3         1 R3T       0.103300
     27 C32          3.0720     2.6610   -39.4120 c3         1 R3T       0.146000
     28 C33          4.1850     3.1670   -38.5120 ca         1 R3T      -0.090300
     29 C34          4.0990     2.9310   -37.1380 ca         1 R3T      -0.094500
     30 C35          5.0930     3.3780   -36.2780 ca         1 R3T      -0.104500
     31 C36          6.1930     4.0690   -36.7820 ca         1 R3T      -0.103000
     32 C37          6.2870     4.3040   -38.1480 ca         1 R3T      -0.104500
     33 C38          5.2890     3.8540   -39.0090 ca         1 R3T      -0.094500
     34 C4          -0.9380    -2.7310   -37.7540 cy         1 R3T       0.143000
     35 C40          3.9980     1.9510   -43.0180 c3         1 R3T      -0.005400
     36 C7          -3.7640    -2.0560   -37.4550 c6         1 R3T       0.179300
     37 C8          -3.2750    -2.6000   -38.8570 c6         1 R3T      -0.156000
     38 N32          3.3840     2.7420   -40.8240 ns         1 R3T      -0.509900
     39 O1          -0.1060    -2.2440   -42.4900 oh         1 R3T      -0.659000
     40 O10         -5.0790    -0.0220   -41.1320 oh         1 R3T      -0.645000
     41 O13          0.3670     1.6150   -39.8240 os         1 R3T      -0.442100
     42 O2           0.2660    -3.1380   -40.0120 os         1 R3T      -0.444100
     43 O21          0.0190    -5.0000   -41.2610 o          1 R3T      -0.502000
     44 O28         -1.0100    -0.2260   -36.7040 o          1 R3T      -0.496000
     45 O30          0.1880     3.5690   -40.9430 o          1 R3T      -0.489000
     46 O31          1.8860     4.7980   -39.3030 oh         1 R3T      -0.640000
     47 O39          3.7900     0.5240   -41.1100 o          1 R3T      -0.579100
     48 O4           0.2260    -1.8890   -37.5840 os         1 R3T      -0.438100
     49 O5          -1.2690    -4.4160   -36.4710 oq         1 R3T      -0.455000
     50 O9          -5.2960    -2.3800   -40.0990 o          1 R3T      -0.543100
     51 BR1          5.9470     2.1850   -43.2480 br         1 R3T      -0.229000
     52 H1          -1.1200    -2.5310   -35.5810 h1         1 R3T       0.077700
     53 H2          -3.3950    -2.2770   -35.3750 hc         1 R3T       0.076200
     54 H3          -3.6170    -3.7960   -36.2280 hc         1 R3T       0.076200
     55 H4          -5.6350    -2.2900   -38.0960 ho         1 R3T       0.461000
     56 H5          -4.1390     0.1320   -39.3090 h1         1 R3T       0.070700
     57 H6          -3.2960    -2.8790   -41.6980 hc         1 R3T       0.046200
     58 H7          -4.0600    -1.6840   -42.7360 hc         1 R3T       0.046200
     59 H8          -2.6770    -2.6030   -43.3040 hc         1 R3T       0.046200
     60 H9          -1.2450     0.6920   -43.1250 hc         1 R3T       0.046200
     61 H10         -1.5380    -0.7690   -44.0500 hc         1 R3T       0.046200
     62 H11         -2.8890     0.2640   -43.5700 hc         1 R3T       0.046200
     63 H12         -3.3780     1.8440   -39.0670 hc         1 R3T       0.057700
     64 H13         -1.8030     1.6110   -38.2980 hc         1 R3T       0.057700
     65 H14         -2.0090     2.8360   -39.5420 hc         1 R3T       0.057700
     66 H15         -2.9290    -4.6700   -38.2790 hc         1 R3T       0.057367
     67 H16         -4.5840    -4.3290   -38.7520 hc         1 R3T       0.057367
     68 H17         -3.3400    -4.4670   -39.9810 hc         1 R3T       0.057367
     69 H18         -0.8150    -4.8560   -38.4720 h1         1 R3T       0.073200
     70 H19          0.5780    -4.3090   -37.4970 h1         1 R3T       0.073200
     71 H20          2.4540    -2.6290   -39.2680 ha         1 R3T       0.134500
     72 H21          4.8520    -3.0490   -38.8410 ha         1 R3T       0.120000
     73 H22          5.9050    -5.1380   -39.6480 ha         1 R3T       0.116000
     74 H23          4.5570    -6.8050   -40.8890 ha         1 R3T       0.120000
     75 H24          2.1540    -6.3740   -41.3200 ha         1 R3T       0.134500
     76 H25         -0.4180     1.4950   -41.7020 h1         1 R3T       0.085700
     77 H26          0.5920    -0.7520   -40.0110 hc         1 R3T       0.083700
     78 H27          0.9630    -0.4020   -41.6760 hc         1 R3T       0.083700
     79 H28         -1.6010    -3.4840   -40.7570 h1         1 R3T       0.074700
     80 H29          1.2370     0.9960   -36.4170 hc         1 R3T       0.074367
     81 H30          2.0580    -0.5840   -36.2640 hc         1 R3T       0.074367
     82 H31          1.8400     0.1380   -37.8540 hc         1 R3T       0.074367
     83 H32         -1.7020    -1.1540   -38.8950 hc         1 R3T       0.084700
     84 H33          1.4530     3.1990   -38.0990 h1         1 R3T       0.096700
     85 H34          2.9100     1.6070   -39.2000 h1         1 R3T       0.097700
     86 H35          3.2510     2.3900   -36.7370 ha         1 R3T       0.108500
     87 H36          5.0130     3.1840   -35.2160 ha         1 R3T       0.115000
     88 H37          6.9700     4.4180   -36.1130 ha         1 R3T       0.116000
     89 H38          7.1400     4.8370   -38.5500 ha         1 R3T       0.115000
     90 H39          5.3810     4.0360   -40.0710 ha         1 R3T       0.108500
     91 H40          3.5440     2.8660   -43.3830 h1         1 R3T       0.097200
     92 H41          3.7250     1.0990   -43.6300 h1         1 R3T       0.097200
     93 H42         -3.4590    -1.0080   -37.4070 h1         1 R3T       0.063700
     94 H43          3.3740     3.6490   -41.2670 hn         1 R3T       0.326500
     95 H44         -0.6290    -2.9840   -42.8240 ho         1 R3T       0.457000
     96 H45         -5.7650    -0.7080   -41.0560 ho         1 R3T       0.467000
     97 H46          1.4180     5.0340   -40.1210 ho         1 R3T       0.469000
     98 C12         -1.9080     0.8470   -40.3040 c2         1 R3T      -0.099400
     99 C21          0.7160    -4.2540   -40.6060 c          1 R3T       0.620700
    100 C39          3.7140     1.6620   -41.5600 c          1 R3T       0.604100
    101 C18         -2.3060     1.8280   -39.2420 c3         1 R3T      -0.063900
@<TRIPOS>BOND
     1     1     7 1   
     2     1    21 1   
     3     1    22 1   
     4     1    39 1   
     5     2     3 1   
     6     2    34 1   
     7     2    49 1   
     8     2    52 1   
     9     3    36 1   
    10     3    53 1   
    11     3    54 1   
    12     4    36 1   
    13     4    55 1   
    14     5     6 1   
    15     5    37 1   
    16     5    50 2   
    17     6    19 1   
    18     6    40 1   
    19     6    56 1   
    20     7     8 1   
    21     7     9 1   
    22     7    19 1   
    23     8    57 1   
    24     8    58 1   
    25     8    59 1   
    26     9    60 1   
    27     9    61 1   
    28     9    62 1   
    29    10    37 1   
    30    10    66 1   
    31    10    67 1   
    32    10    68 1   
    33    11    34 1   
    34    11    49 1   
    35    11    69 1   
    36    11    70 1   
    37    12    13 ar  
    38    12    17 ar  
    39    12    99 1   
    40    13    14 ar  
    41    13    71 1   
    42    14    15 ar  
    43    14    72 1   
    44    15    16 ar  
    45    15    73 1   
    46    16    17 ar  
    47    16    74 1   
    48    17    75 1   
    49    18    23 1   
    50    18    44 2   
    51    18    48 1   
    52    19    98 2   
    53    20    21 1   
    54    20    41 1   
    55    20    76 1   
    56    20    98 1   
    57    21    77 1   
    58    21    78 1   
    59    22    24 1   
    60    22    42 1   
    61    22    79 1   
    62    23    80 1   
    63    23    81 1   
    64    23    82 1   
    65    24    34 1   
    66    24    37 1   
    67    24    83 1   
    68    25    26 1   
    69    25    41 1   
    70    25    45 2   
    71    26    27 1   
    72    26    46 1   
    73    26    84 1   
    74    27    28 1   
    75    27    38 1   
    76    27    85 1   
    77    28    29 ar  
    78    28    33 ar  
    79    29    30 ar  
    80    29    86 1   
    81    30    31 ar  
    82    30    87 1   
    83    31    32 ar  
    84    31    88 1   
    85    32    33 ar  
    86    32    89 1   
    87    33    90 1   
    88    34    48 1   
    89    35    51 1   
    90    35    91 1   
    91    35    92 1   
    92    35   100 1   
    93    36    37 1   
    94    36    93 1   
    95    38    94 1   
    96    38   100 1   
    97    39    95 1   
    98    40    96 1   
    99    42    99 1   
   100    43    99 2   
   101    46    97 1   
   102    47   100 2   
   103    63   101 1   
   104    64   101 1   
   105    65   101 1   
   106    98   101 1   
@<TRIPOS>SUBSTRUCTURE
     1 R3T         1 TEMP              0 ****  ****    0 ROOT
