@<TRIPOS>MOLECULE
R3T
  101   106     1     0     0
SMALL
No Charge or Current Charge


@<TRIPOS>ATOM
      1 C1          -0.7980    -2.0460   -41.5750 c6         1 R3T       0.191000
      2 C5          -1.2560    -2.0490   -36.2050 cy         1 R3T       0.150300
      3 C6          -2.7820    -2.2510   -36.0870 c6         1 R3T      -0.083400
      4 O7          -4.9250    -1.7090   -37.0810 oh         1 R3T      -0.672000
      5 C9          -4.1360    -1.9480   -39.7620 c          1 R3T       0.540100
      6 C10         -3.9390    -0.5070   -40.3400 c3         1 R3T       0.127500
      7 C15         -2.0990    -1.3130   -42.1300 c6         1 R3T      -0.027800
      8 C16         -3.1810    -2.3750   -42.5850 c3         1 R3T      -0.090600
      9 C17         -1.8320    -0.5780   -43.5090 c3         1 R3T      -0.090600
     10 C19         -3.5520    -4.0550   -38.4790 c3         1 R3T      -0.094100
     11 C20         -0.3710    -3.7650   -37.0220 cy         1 R3T       0.151600
     12 C22          1.7300    -5.4740   -40.0480 ca         1 R3T      -0.148600
     13 C23          2.6230    -4.7550   -39.2180 ca         1 R3T      -0.049000
     14 C24          3.8230    -5.3450   -38.7850 ca         1 R3T      -0.126500
     15 C25          4.1480    -6.6540   -39.1760 ca         1 R3T      -0.077000
     16 C26          3.2710    -7.3740   -40.0040 ca         1 R3T      -0.126500
     17 C27          2.0700    -6.7880   -40.4400 ca         1 R3T      -0.049000
     18 C28          0.6540    -0.2810   -37.7730 c          1 R3T       0.596100
     19 C11         -2.6230    -0.2330   -41.0960 c2         1 R3T      -0.106400
     20 C13         -0.4390     0.9990   -41.2300 c6         1 R3T       0.207500
     21 C14          0.3420    -1.0010   -41.3510 c6         1 R3T      -0.075400
     22 C2          -1.0650    -2.9360   -40.2480 c3         1 R3T       0.150300
     23 C29          2.0830     0.2300   -37.8210 c3         1 R3T      -0.158100
     24 C3          -1.6090    -2.2450   -38.9070 c6         1 R3T      -0.038700
     25 C30          0.6460     3.0910   -40.5610 c          1 R3T       0.564100
     26 C31          1.5660     3.7030   -39.4700 c3         1 R3T       0.103300
     27 C32          3.0430     3.2480   -39.6950 c3         1 R3T       0.146000
     28 C33          3.9270     3.2320   -38.4410 ca         1 R3T      -0.090300
     29 C34          4.9940     2.3110   -38.3840 ca         1 R3T      -0.094500
     30 C35          5.8270     2.2460   -37.2550 ca         1 R3T      -0.104500
     31 C36          5.6070     3.1070   -36.1690 ca         1 R3T      -0.103000
     32 C37          4.5540     4.0340   -36.2150 ca         1 R3T      -0.104500
     33 C38          3.7190     4.0990   -37.3440 ca         1 R3T      -0.094500
     34 C4          -0.6270    -2.3410   -37.6340 cy         1 R3T       0.143000
     35 C40          4.5350     4.6010   -42.9910 c3         1 R3T      -0.005400
     36 C7          -3.5170    -1.7120   -37.3300 c6         1 R3T       0.179300
     37 C8          -3.1790    -2.5180   -38.6310 c6         1 R3T      -0.156000
     38 N32          3.7120     4.0110   -40.7570 ns         1 R3T      -0.509900
     39 O1          -0.3300    -2.9250   -42.6170 oh         1 R3T      -0.659000
     40 O10         -5.0590    -0.0910   -41.1560 oh         1 R3T      -0.645000
     41 O13          0.3890     1.7620   -40.3290 os         1 R3T      -0.442100
     42 O2           0.1400    -3.6690   -39.9110 os         1 R3T      -0.444100
     43 O21         -0.2740    -5.3700   -41.3780 o          1 R3T      -0.502000
     44 O28         -0.3050     0.4340   -37.5230 o          1 R3T      -0.496000
     45 O30          0.1700     3.7370   -41.4870 o          1 R3T      -0.489000
     46 O31          1.4550     5.1560   -39.4260 oh         1 R3T      -0.640000
     47 O39          3.1950     2.6440   -42.5040 o          1 R3T      -0.579100
     48 O4           0.6230    -1.6500   -37.8850 os         1 R3T      -0.438100
     49 O5          -0.4600    -3.1700   -35.6750 oq         1 R3T      -0.455000
     50 O9          -5.0720    -2.6180   -40.1960 o          1 R3T      -0.543100
     51 Br1          6.5040     4.5740   -42.6300 br         1 R3T      -0.229000
     52 H1          -0.9430    -1.1050   -35.7470 h1         1 R3T       0.077700
     53 H2          -3.1270    -1.6990   -35.2020 hc         1 R3T       0.076200
     54 H3          -3.0290    -3.2990   -35.8830 hc         1 R3T       0.076200
     55 H4          -5.1700    -2.6110   -36.7800 ho         1 R3T       0.461000
     56 H5          -3.9470     0.0910   -39.4230 h1         1 R3T       0.070700
     57 H6          -3.3670    -3.1660   -41.8590 hc         1 R3T       0.046200
     58 H7          -4.1370    -1.9070   -42.8460 hc         1 R3T       0.046200
     59 H8          -2.8660    -2.9270   -43.4790 hc         1 R3T       0.046200
     60 H9          -0.8940    -0.0260   -43.5560 hc         1 R3T       0.046200
     61 H10         -1.7610    -1.2740   -44.3530 hc         1 R3T       0.046200
     62 H11         -2.6430     0.1230   -43.7450 hc         1 R3T       0.046200
     63 H12         -3.4560     2.0680   -39.7710 hc         1 R3T       0.057700
     64 H13         -1.8980     2.0320   -38.9280 hc         1 R3T       0.057700
     65 H14         -2.1280     2.9950   -40.3930 hc         1 R3T       0.057700
     66 H15         -3.0480    -4.5750   -37.6680 hc         1 R3T       0.057367
     67 H16         -4.6200    -4.1900   -38.2690 hc         1 R3T       0.057367
     68 H17         -3.3500    -4.6260   -39.3930 hc         1 R3T       0.057367
     69 H18         -1.1330    -4.5230   -37.1760 h1         1 R3T       0.073200
     70 H19          0.6220    -4.1810   -37.2210 h1         1 R3T       0.073200
     71 H20          2.3980    -3.7360   -38.9080 ha         1 R3T       0.134500
     72 H21          4.5030    -4.7850   -38.1470 ha         1 R3T       0.120000
     73 H22          5.0780    -7.1090   -38.8400 ha         1 R3T       0.116000
     74 H23          3.5230    -8.3870   -40.3090 ha         1 R3T       0.120000
     75 H24          1.4010    -7.3610   -41.0800 ha         1 R3T       0.134500
     76 H25         -0.4010     1.4640   -42.2240 h1         1 R3T       0.085700
     77 H26          0.9150    -1.2340   -40.4480 hc         1 R3T       0.083700
     78 H27          1.0690    -1.0280   -42.1730 hc         1 R3T       0.083700
     79 H28         -1.8300    -3.6650   -40.5240 h1         1 R3T       0.074700
     80 H29          2.1640     1.2670   -37.4820 hc         1 R3T       0.074367
     81 H30          2.7290    -0.4420   -37.2460 hc         1 R3T       0.074367
     82 H31          2.4620     0.1050   -38.8410 hc         1 R3T       0.074367
     83 H32         -1.5430    -1.1800   -39.1240 hc         1 R3T       0.084700
     84 H33          1.2200     3.2690   -38.5230 h1         1 R3T       0.096700
     85 H34          2.9920     2.2010   -40.0270 h1         1 R3T       0.097700
     86 H35          5.1780     1.6390   -39.2190 ha         1 R3T       0.108500
     87 H36          6.6450     1.5290   -37.2230 ha         1 R3T       0.115000
     88 H37          6.2520     3.0580   -35.2940 ha         1 R3T       0.116000
     89 H38          4.3840     4.7050   -35.3760 ha         1 R3T       0.115000
     90 H39          2.9150     4.8300   -37.3520 ha         1 R3T       0.108500
     91 H40          4.1860     5.6280   -42.8360 h1         1 R3T       0.097200
     92 H41          4.3880     4.3100   -44.0380 h1         1 R3T       0.097200
     93 H42         -3.1840    -0.6710   -37.4680 h1         1 R3T       0.063700
     94 H43          4.2230     4.8460   -40.4930 hn         1 R3T       0.326500
     95 H44         -0.4190    -3.8470   -42.2750 ho         1 R3T       0.457000
     96 H45         -5.6700    -0.8640   -41.1880 ho         1 R3T       0.467000
     97 H46          1.3840     5.4670   -40.3570 ho         1 R3T       0.469000
     98 C12         -1.8900     0.8750   -40.7810 c2         1 R3T      -0.099400
     99 C21          0.4370    -4.8600   -40.5220 c          1 R3T       0.620700
    100 C39          3.7460     3.6530   -42.0870 c          1 R3T       0.604100
    101 C18         -2.3720     2.0410   -39.9160 c3         1 R3T      -0.063900
@<TRIPOS>BOND
     1     1     7 1   
     2     1    21 1   
     3     1    22 1   
     4     1    39 1   
     5     2     3 1   
     6     2    34 1   
     7     2    49 1   
     8     2    52 1   
     9     3    36 1   
    10     3    53 1   
    11     3    54 1   
    12     4    36 1   
    13     4    55 1   
    14     5     6 1   
    15     5    37 1   
    16     5    50 2   
    17     6    19 1   
    18     6    40 1   
    19     6    56 1   
    20     7     8 1   
    21     7     9 1   
    22     7    19 1   
    23     8    57 1   
    24     8    58 1   
    25     8    59 1   
    26     9    60 1   
    27     9    61 1   
    28     9    62 1   
    29    10    37 1   
    30    10    66 1   
    31    10    67 1   
    32    10    68 1   
    33    11    34 1   
    34    11    49 1   
    35    11    69 1   
    36    11    70 1   
    37    12    13 ar  
    38    12    17 ar  
    39    12    99 1   
    40    13    14 ar  
    41    13    71 1   
    42    14    15 ar  
    43    14    72 1   
    44    15    16 ar  
    45    15    73 1   
    46    16    17 ar  
    47    16    74 1   
    48    17    75 1   
    49    18    23 1   
    50    18    44 2   
    51    18    48 1   
    52    19    98 2   
    53    20    21 1   
    54    20    41 1   
    55    20    76 1   
    56    20    98 1   
    57    21    77 1   
    58    21    78 1   
    59    22    24 1   
    60    22    42 1   
    61    22    79 1   
    62    23    80 1   
    63    23    81 1   
    64    23    82 1   
    65    24    34 1   
    66    24    37 1   
    67    24    83 1   
    68    25    26 1   
    69    25    41 1   
    70    25    45 2   
    71    26    27 1   
    72    26    46 1   
    73    26    84 1   
    74    27    28 1   
    75    27    38 1   
    76    27    85 1   
    77    28    29 ar  
    78    28    33 ar  
    79    29    30 ar  
    80    29    86 1   
    81    30    31 ar  
    82    30    87 1   
    83    31    32 ar  
    84    31    88 1   
    85    32    33 ar  
    86    32    89 1   
    87    33    90 1   
    88    34    48 1   
    89    35    51 1   
    90    35    91 1   
    91    35    92 1   
    92    35   100 1   
    93    36    37 1   
    94    36    93 1   
    95    38    94 1   
    96    38   100 1   
    97    39    95 1   
    98    40    96 1   
    99    42    99 1   
   100    43    99 2   
   101    46    97 1   
   102    47   100 2   
   103    63   101 1   
   104    64   101 1   
   105    65   101 1   
   106    98   101 1   
@<TRIPOS>SUBSTRUCTURE
     1 R3T         1 TEMP              0 ****  ****    0 ROOT
