@<TRIPOS>MOLECULE
R3V
   65    69     1     0     0
SMALL
No Charge or Current Charge


@<TRIPOS>ATOM
      1 CBE         -7.0390     1.2730     0.4680 c5         1 R3V       0.162800
      2 CBD         -7.4800     0.6780    -0.8900 c5         1 R3V      -0.068700
      3 CBF         -8.7920     1.2600    -1.4600 c3         1 R3V      -0.083100
      4 CBC         -6.2160     0.9350    -1.7670 c5         1 R3V      -0.082400
      5 CBB         -5.0540     1.0660    -0.7350 c5         1 R3V       0.165800
      6 NBA         -5.6840     0.6950     0.5580 n3         1 R3V      -0.723600
      7 CAZ         -4.9190     1.0450     1.7880 c3         1 R3V       0.174800
      8 CAY         -3.5300     0.3690     1.9370 c3         1 R3V       0.163600
      9 OAX         -2.5820     1.0270     1.0700 os         1 R3V      -0.352100
     10 CAO         -1.2670     0.6210     0.9760 ca         1 R3V       0.145100
     11 CAP         -0.4320     1.3100     0.0840 ca         1 R3V      -0.176000
     12 CAQ          0.9160     0.9400    -0.0620 ca         1 R3V      -0.064000
     13 CAN         -0.7430    -0.4470     1.7330 ca         1 R3V      -0.176000
     14 CAM          0.6050    -0.8170     1.5890 ca         1 R3V      -0.064000
     15 CAK          1.4450    -0.1310     0.6880 ca         1 R3V      -0.114300
     16 CAJ          2.9170    -0.5640     0.5340 c6         1 R3V       0.051900
     17 CAF          3.8450     0.6550     0.3860 ca         1 R3V      -0.111300
     18 CAA          4.0280     1.5060     1.4950 ca         1 R3V      -0.065000
     19 CAB          4.8530     2.6380     1.3940 ca         1 R3V      -0.145000
     20 CAC          5.5000     2.9290     0.1860 ca         1 R3V       0.140100
     21 OAW          6.3010     4.0260     0.0940 oh         1 R3V      -0.534100
     22 CAD          5.3230     2.0920    -0.9250 ca         1 R3V      -0.211000
     23 CAE          4.4940     0.9560    -0.8380 ca         1 R3V      -0.029300
     24 CAG          4.3410     0.0590    -2.0730 c6         1 R3V      -0.035100
     25 CAH          3.1550    -0.9260    -1.9840 c6         1 R3V      -0.068400
     26 CAI          3.1230    -1.6160    -0.5970 c6         1 R3V      -0.007400
     27 CAL          2.1270    -2.7890    -0.5010 ca         1 R3V      -0.074300
     28 CAR          0.8750    -2.7610    -1.1550 ca         1 R3V      -0.103000
     29 CAS         -0.0180    -3.8390    -1.0290 ca         1 R3V      -0.112000
     30 CAT          0.3280    -4.9540    -0.2490 ca         1 R3V      -0.112000
     31 CAU          1.5680    -4.9890     0.4090 ca         1 R3V      -0.112000
     32 CAV          2.4610    -3.9110     0.2860 ca         1 R3V      -0.103000
     33 H1          -7.0160     2.3730     0.4500 h1         1 R3V       0.033700
     34 H2          -7.6890     0.9500     1.2920 h1         1 R3V       0.033700
     35 H3          -7.6420    -0.4010    -0.7790 hc         1 R3V       0.058700
     36 H4          -8.7200     2.3470    -1.5930 hc         1 R3V       0.033700
     37 H5          -9.0260     0.8170    -2.4350 hc         1 R3V       0.033700
     38 H6          -9.6350     1.0590    -0.7890 hc         1 R3V       0.033700
     39 H7          -6.0450     0.1130    -2.4720 hc         1 R3V       0.044700
     40 H8          -6.3050     1.8520    -2.3600 hc         1 R3V       0.044700
     41 H9          -4.2100     0.4100    -0.9860 h1         1 R3V       0.043700
     42 H10         -4.6810     2.1000    -0.7110 h1         1 R3V       0.043700
     43 H12         -4.7850     2.1330     1.8520 h1         1 R3V       0.040200
     44 H13         -5.5140     0.7520     2.6630 h1         1 R3V       0.040200
     45 H14         -3.2070     0.4590     2.9820 h1         1 R3V       0.041700
     46 H15         -3.6170    -0.6980     1.6920 h1         1 R3V       0.041700
     47 H16         -0.8320     2.1340    -0.5010 ha         1 R3V       0.120000
     48 H17          1.5440     1.4870    -0.7610 ha         1 R3V       0.116000
     49 H18         -1.3620    -1.0010     2.4320 ha         1 R3V       0.120000
     50 H19          0.9950    -1.6490     2.1720 ha         1 R3V       0.116000
     51 H20          3.2050    -1.0630     1.4700 hc         1 R3V       0.057700
     52 H21          3.5260     1.2900     2.4350 ha         1 R3V       0.117000
     53 H22          4.9890     3.2890     2.2540 ha         1 R3V       0.129000
     54 H23          6.6630     4.0660    -0.8170 ho         1 R3V       0.462000
     55 H24          5.8270     2.3170    -1.8610 ha         1 R3V       0.110000
     56 H25          4.2310     0.6780    -2.9740 hc         1 R3V       0.049700
     57 H26          5.2710    -0.5100    -2.2080 hc         1 R3V       0.049700
     58 H27          2.2200    -0.3840    -2.1700 hc         1 R3V       0.049700
     59 H28          3.2440    -1.6780    -2.7800 hc         1 R3V       0.049700
     60 H29          4.1260    -2.0420    -0.4500 hc         1 R3V       0.054700
     61 H30          0.5780    -1.9020    -1.7490 ha         1 R3V       0.113000
     62 H31         -0.9810    -3.8070    -1.5330 ha         1 R3V       0.111500
     63 H32         -0.3650    -5.7870    -0.1510 ha         1 R3V       0.111000
     64 H33          1.8360    -5.8500     1.0180 ha         1 R3V       0.111500
     65 H34          3.4160    -3.9480     0.8060 ha         1 R3V       0.113000
@<TRIPOS>BOND
     1     1     2 1   
     2     1     6 1   
     3     1    33 1   
     4     1    34 1   
     5     2     3 1   
     6     2     4 1   
     7     2    35 1   
     8     3    36 1   
     9     3    37 1   
    10     3    38 1   
    11     4     5 1   
    12     4    39 1   
    13     4    40 1   
    14     5     6 1   
    15     5    41 1   
    16     5    42 1   
    17     6     7 1   
    18     7     8 1   
    19     7    43 1   
    20     7    44 1   
    21     8     9 1   
    22     8    45 1   
    23     8    46 1   
    24     9    10 1   
    25    10    11 ar  
    26    10    13 ar  
    27    11    12 ar  
    28    11    47 1   
    29    12    15 ar  
    30    12    48 1   
    31    13    14 ar  
    32    13    49 1   
    33    14    15 ar  
    34    14    50 1   
    35    15    16 1   
    36    16    17 1   
    37    16    26 1   
    38    16    51 1   
    39    17    18 ar  
    40    17    23 ar  
    41    18    19 ar  
    42    18    52 1   
    43    19    20 ar  
    44    19    53 1   
    45    20    21 1   
    46    20    22 ar  
    47    21    54 1   
    48    22    23 ar  
    49    22    55 1   
    50    23    24 1   
    51    24    25 1   
    52    24    56 1   
    53    24    57 1   
    54    25    26 1   
    55    25    58 1   
    56    25    59 1   
    57    26    27 1   
    58    26    60 1   
    59    27    28 ar  
    60    27    32 ar  
    61    28    29 ar  
    62    28    61 1   
    63    29    30 ar  
    64    29    62 1   
    65    30    31 ar  
    66    30    63 1   
    67    31    32 ar  
    68    31    64 1   
    69    32    65 1   
@<TRIPOS>SUBSTRUCTURE
     1 R3V         1 TEMP              0 ****  ****    0 ROOT
