@<TRIPOS>MOLECULE
R3V
   65    69     1     0     0
SMALL
bcc


@<TRIPOS>ATOM
      1 CBE         -6.9970     0.9550     0.4480 c5         1 R3V       0.162800
      2 CBD         -7.4800     0.8300    -0.9920 c5         1 R3V      -0.068700
      3 CBF         -8.7690     1.5800    -1.2750 c3         1 R3V      -0.083100
      4 CBC         -6.2650     1.3290    -1.8000 c5         1 R3V      -0.082400
      5 CBB         -5.0950     1.3460    -0.8030 c5         1 R3V       0.165800
      6 NBA         -5.5870     0.6230     0.3640 n3         1 R3V      -0.723600
      7 CAZ         -4.8780     0.8630     1.5980 c3         1 R3V       0.174800
      8 CAY         -3.5130     0.2150     1.6820 c3         1 R3V       0.140400
      9 OAX         -2.5940     0.9250     0.8700 os         1 R3V      -0.328900
     10 CAO         -1.3070     0.5230     0.8390 ca         1 R3V       0.145100
     11 CAP         -0.4490     1.2540     0.0170 ca         1 R3V      -0.194000
     12 CAQ          0.8910     0.9220    -0.0650 ca         1 R3V      -0.082000
     13 CAN         -0.7950    -0.5430     1.5720 ca         1 R3V      -0.194000
     14 CAM          0.5530    -0.8610     1.4730 ca         1 R3V      -0.082000
     15 CAK          1.4230    -0.1470     0.6570 ca         1 R3V      -0.114300
     16 CAJ          2.8780    -0.5550     0.5570 c6         1 R3V       0.051900
     17 CAF          3.7810     0.6410     0.3550 ca         1 R3V      -0.111300
     18 CAA          3.9920     1.5140     1.4230 ca         1 R3V      -0.083000
     19 CAB          4.7790     2.6420     1.3040 ca         1 R3V      -0.163000
     20 CAC          5.3800     2.9250     0.0770 ca         1 R3V       0.140100
     21 OAW          6.1390     4.0390    -0.0110 oh         1 R3V      -0.495100
     22 CAD          5.1790     2.0670    -0.9940 ca         1 R3V      -0.229000
     23 CAE          4.3860     0.9250    -0.8670 ca         1 R3V      -0.029300
     24 CAG          4.2400     0.0090    -2.0530 c6         1 R3V      -0.035100
     25 CAH          3.0990    -0.9880    -1.9150 c6         1 R3V      -0.068400
     26 CAI          3.1350    -1.6270    -0.5320 c6         1 R3V      -0.007400
     27 CAL          2.2280    -2.8190    -0.3710 ca         1 R3V      -0.074300
     28 CAR          0.9710    -2.8830    -0.9660 ca         1 R3V      -0.121000
     29 CAS          0.1420    -3.9780    -0.7650 ca         1 R3V      -0.130000
     30 CAT          0.5560    -5.0320     0.0400 ca         1 R3V      -0.130000
     31 CAU          1.8070    -4.9800     0.6410 ca         1 R3V      -0.130000
     32 CAV          2.6320    -3.8830     0.4330 ca         1 R3V      -0.121000
     33 H1          -7.1610     1.9880     0.8100 h1         1 R3V       0.033700
     34 H2          -7.5170     0.2840     1.1360 h1         1 R3V       0.033700
     35 H3          -7.6350    -0.2320    -1.2060 hc         1 R3V       0.058700
     36 H4          -8.6530     2.6460    -1.0680 hc         1 R3V       0.033700
     37 H5          -9.0660     1.4770    -2.3200 hc         1 R3V       0.033700
     38 H6          -9.5920     1.2080    -0.6620 hc         1 R3V       0.033700
     39 H7          -6.0650     0.6830    -2.6550 hc         1 R3V       0.044700
     40 H8          -6.4460     2.3310    -2.1950 hc         1 R3V       0.044700
     41 H9          -4.1950     0.8810    -1.2060 h1         1 R3V       0.043700
     42 H10         -4.8320     2.3850    -0.5460 h1         1 R3V       0.043700
     43 H12         -4.7860     1.9390     1.8270 h1         1 R3V       0.040200
     44 H13         -5.4650     0.4250     2.4100 h1         1 R3V       0.040200
     45 H14         -3.1810     0.2310     2.7260 h1         1 R3V       0.041700
     46 H15         -3.5810    -0.8330     1.3680 h1         1 R3V       0.041700
     47 H16         -0.8390     2.0920    -0.5490 ha         1 R3V       0.138000
     48 H17          1.5350     1.5230    -0.6950 ha         1 R3V       0.134000
     49 H18         -1.4230    -1.1350     2.2230 ha         1 R3V       0.138000
     50 H19          0.9290    -1.6990     2.0490 ha         1 R3V       0.134000
     51 H20          3.1460    -1.0110     1.5160 hc         1 R3V       0.057700
     52 H21          3.5220     1.3000     2.3770 ha         1 R3V       0.135000
     53 H22          4.9310     3.3030     2.1490 ha         1 R3V       0.147000
     54 H23          6.5130     4.1190    -0.8950 ho         1 R3V       0.423000
     55 H24          5.6440     2.2820    -1.9520 ha         1 R3V       0.128000
     56 H25          4.1220     0.6010    -2.9640 hc         1 R3V       0.049700
     57 H26          5.1790    -0.5430    -2.1770 hc         1 R3V       0.049700
     58 H27          2.1400    -0.4940    -2.0870 hc         1 R3V       0.049700
     59 H28          3.1920    -1.7540    -2.6880 hc         1 R3V       0.049700
     60 H29          4.1600    -1.9810    -0.3630 hc         1 R3V       0.054700
     61 H30          0.6220    -2.0650    -1.5840 ha         1 R3V       0.131000
     62 H31         -0.8320    -4.0070    -1.2360 ha         1 R3V       0.129500
     63 H32         -0.0920    -5.8850     0.1970 ha         1 R3V       0.129000
     64 H33          2.1430    -5.7970     1.2680 ha         1 R3V       0.129500
     65 H34          3.6090    -3.8520     0.9030 ha         1 R3V       0.131000
@<TRIPOS>BOND
     1     1     2 1   
     2     1     6 1   
     3     1    33 1   
     4     1    34 1   
     5     2     3 1   
     6     2     4 1   
     7     2    35 1   
     8     3    36 1   
     9     3    37 1   
    10     3    38 1   
    11     4     5 1   
    12     4    39 1   
    13     4    40 1   
    14     5     6 1   
    15     5    41 1   
    16     5    42 1   
    17     6     7 1   
    18     7     8 1   
    19     7    43 1   
    20     7    44 1   
    21     8     9 1   
    22     8    45 1   
    23     8    46 1   
    24     9    10 1   
    25    10    11 ar  
    26    10    13 ar  
    27    11    12 ar  
    28    11    47 1   
    29    12    15 ar  
    30    12    48 1   
    31    13    14 ar  
    32    13    49 1   
    33    14    15 ar  
    34    14    50 1   
    35    15    16 1   
    36    16    17 1   
    37    16    26 1   
    38    16    51 1   
    39    17    18 ar  
    40    17    23 ar  
    41    18    19 ar  
    42    18    52 1   
    43    19    20 ar  
    44    19    53 1   
    45    20    21 1   
    46    20    22 ar  
    47    21    54 1   
    48    22    23 ar  
    49    22    55 1   
    50    23    24 1   
    51    24    25 1   
    52    24    56 1   
    53    24    57 1   
    54    25    26 1   
    55    25    58 1   
    56    25    59 1   
    57    26    27 1   
    58    26    60 1   
    59    27    28 ar  
    60    27    32 ar  
    61    28    29 ar  
    62    28    61 1   
    63    29    30 ar  
    64    29    62 1   
    65    30    31 ar  
    66    30    63 1   
    67    31    32 ar  
    68    31    64 1   
    69    32    65 1   
@<TRIPOS>SUBSTRUCTURE
     1 R3V         1 TEMP              0 ****  ****    0 ROOT
