@<TRIPOS>MOLECULE
R3W
    7     6     1     0     0
SMALL
bcc


@<TRIPOS>ATOM
      1 C1           1.0710    -0.0470     0.0370 c          1 R3W       0.931600
      2 O1           2.1510     0.5740     0.0290 o          1 R3W      -0.822300
      3 CL1         -1.7350     0.0700     0.0400 cl         1 R3W      -0.290400
      4 C2          -0.1430     0.9040     0.0350 c3         1 R3W      -0.063000
      5 O2           0.8830    -1.2680     0.0460 o          1 R3W      -0.822300
      6 H2          -0.1180     1.5480     0.9120 h1         1 R3W       0.032700
      7 H2A         -0.1190     1.5410    -0.8480 h1         1 R3W       0.032700
@<TRIPOS>BOND
     1     1     2 1   
     2     1     4 1   
     3     1     5 1   
     4     3     4 1   
     5     4     6 1   
     6     4     7 1   
@<TRIPOS>SUBSTRUCTURE
     1 R3W         1 TEMP              0 ****  ****    0 ROOT
