@<TRIPOS>MOLECULE
R3W
    7     6     1     0     0
SMALL
No Charge or Current Charge


@<TRIPOS>ATOM
      1 C1           1.0840    -0.0100     0.0340 c          1 R3W       0.721000
      2 O1           1.8950     0.2160    -0.8560 o          1 R3W      -0.717000
      3 Cl1         -1.6080     0.2910    -0.8480 cl         1 R3W      -0.367000
      4 C2          -0.1740     0.8900     0.1290 c3         1 R3W       0.013600
      5 O2           1.2100    -0.9190     0.8450 o          1 R3W      -0.717000
      6 H2          -0.4910     0.9570     1.1770 h1         1 R3W       0.032700
      7 H2A          0.0750     1.8970    -0.2300 h1         1 R3W       0.032700
@<TRIPOS>BOND
     1     1     2 1   
     2     1     4 1   
     3     1     5 1   
     4     3     4 1   
     5     4     6 1   
     6     4     7 1   
@<TRIPOS>SUBSTRUCTURE
     1 R3W         1 TEMP              0 ****  ****    0 ROOT
