@<TRIPOS>MOLECULE
R3X
   48    50     1     0     0
SMALL
No Charge or Current Charge


@<TRIPOS>ATOM
      1 CAB         -6.9870    -0.9060    -0.3150 ca         1 R3X      -0.071500
      2 CAA         -8.3030    -0.5280     0.0050 ca         1 R3X      -0.169500
      3 CAF         -8.5470     0.7060     0.6270 ca         1 R3X       0.122100
      4 OAP         -9.8190     1.0790     0.9400 oh         1 R3X      -0.543100
      5 CAE         -7.4770     1.5600     0.9270 ca         1 R3X      -0.169500
      6 CAD         -6.1600     1.1850     0.6080 ca         1 R3X      -0.071500
      7 CAC         -5.9020    -0.0550    -0.0170 ca         1 R3X      -0.063800
      8 CAG         -4.5180    -0.4890    -0.3720 ce         1 R3X      -0.179200
      9 CAH         -3.3260     0.1310    -0.1250 cf         1 R3X      -0.123200
     10 CAI         -1.9540    -0.2940    -0.4740 ca         1 R3X      -0.023800
     11 CAN         -0.8660     0.5220    -0.1080 ca         1 R3X      -0.176000
     12 CAJ         -1.6940    -1.4940    -1.1650 ca         1 R3X      -0.173000
     13 CAK         -0.3790    -1.8650    -1.4800 ca         1 R3X       0.165100
     14 OAO         -0.1590    -3.0320    -2.1490 oh         1 R3X      -0.551100
     15 CAL          0.6980    -1.0460    -1.1130 ca         1 R3X      -0.239000
     16 CAM          0.4540     0.1570    -0.4180 ca         1 R3X       0.173100
     17 O1           1.4570     1.0230    -0.0280 os         1 R3X      -0.364100
     18 C1           2.8470     0.7340    -0.2740 c6         1 R3X       0.363300
     19 C2           3.7240     1.9780     0.0840 c6         1 R3X       0.098300
     20 C3           5.2120     1.6190    -0.1800 c6         1 R3X       0.167300
     21 C4           5.6140     0.3450     0.6280 c6         1 R3X       0.179300
     22 C5           4.6410    -0.8230     0.2950 c6         1 R3X      -0.030700
     23 C6           5.0450    -2.1070     1.0960 c          1 R3X       0.750000
     24 O2           3.3420     3.1670    -0.6570 oh         1 R3X      -0.733000
     25 O3           6.0580     2.7290     0.1620 oh         1 R3X      -0.643000
     26 O4           6.9810     0.0000     0.3470 oh         1 R3X      -0.752000
     27 O5           3.2640    -0.3860     0.5370 os         1 R3X      -0.441000
     28 O6A          5.4570    -3.0390     0.4140 o          1 R3X      -0.705000
     29 O6B          4.3980    -2.3510     2.1090 o          1 R3X      -0.705000
     30 HAB         -6.8110    -1.8650    -0.7970 ha         1 R3X       0.114500
     31 HAA         -9.1260    -1.1990    -0.2330 ha         1 R3X       0.116000
     32 HAP        -10.4300     0.3640     0.6600 ho         1 R3X       0.456000
     33 HAE         -7.6660     2.5170     1.4080 ha         1 R3X       0.116000
     34 HAD         -5.3500     1.8680     0.8490 ha         1 R3X       0.114500
     35 HAG         -4.4920    -1.4410    -0.9000 ha         1 R3X       0.177000
     36 HAH         -3.3570     1.0800     0.4080 ha         1 R3X       0.165000
     37 HAN         -1.0410     1.4530     0.4250 ha         1 R3X       0.113000
     38 HAJ         -2.5040    -2.1500    -1.4650 ha         1 R3X       0.118000
     39 HAO          0.8070    -3.1490    -2.2740 ho         1 R3X       0.498000
     40 HAL          1.7090    -1.3510    -1.3620 ha         1 R3X       0.199000
     41 H1           2.9850     0.4950    -1.3390 h2         1 R3X       0.033700
     42 H2           3.6030     2.1630     1.1620 h1         1 R3X       0.061700
     43 H3           5.3190     1.3940    -1.2520 h1         1 R3X       0.038700
     44 HA           2.3610     3.2480    -0.5680 ho         1 R3X       0.509000
     45 H4           5.5090     0.5730     1.7000 h1         1 R3X       0.044700
     46 HB           5.5440     3.5220    -0.1150 ho         1 R3X       0.437000
     47 H5           4.7350    -1.0670    -0.7730 h1         1 R3X       0.030700
     48 HC           7.4550     0.8690     0.3070 ho         1 R3X       0.567000
@<TRIPOS>BOND
     1     1     2 ar  
     2     1     7 ar  
     3     1    30 1   
     4     2     3 ar  
     5     2    31 1   
     6     3     4 1   
     7     3     5 ar  
     8     4    32 1   
     9     5     6 ar  
    10     5    33 1   
    11     6     7 ar  
    12     6    34 1   
    13     7     8 1   
    14     8     9 2   
    15     8    35 1   
    16     9    10 1   
    17     9    36 1   
    18    10    11 ar  
    19    10    12 ar  
    20    11    16 ar  
    21    11    37 1   
    22    12    13 ar  
    23    12    38 1   
    24    13    14 1   
    25    13    15 ar  
    26    14    39 1   
    27    15    16 ar  
    28    15    40 1   
    29    16    17 1   
    30    17    18 1   
    31    18    19 1   
    32    18    27 1   
    33    18    41 1   
    34    19    20 1   
    35    19    24 1   
    36    19    42 1   
    37    20    21 1   
    38    20    25 1   
    39    20    43 1   
    40    21    22 1   
    41    21    26 1   
    42    21    45 1   
    43    22    23 1   
    44    22    27 1   
    45    22    47 1   
    46    23    28 1   
    47    23    29 1   
    48    24    44 1   
    49    25    46 1   
    50    26    48 1   
@<TRIPOS>SUBSTRUCTURE
     1 R3X         1 TEMP              0 ****  ****    0 ROOT
