@<TRIPOS>MOLECULE
R3X
   48    50     1     0     0
SMALL
abcg2


@<TRIPOS>ATOM
      1 CAB         -6.7720    -0.9730     0.1210 ca         1 R3X      -0.071500
      2 CAA         -8.0960    -0.5600     0.1610 ca         1 R3X      -0.169500
      3 CAF         -8.4000     0.7930     0.0920 ca         1 R3X       0.122100
      4 OAP         -9.6840     1.2610     0.0930 oh         1 R3X      -0.543100
      5 CAE         -7.3690     1.7220    -0.0050 ca         1 R3X      -0.169500
      6 CAD         -6.0540     1.2940    -0.0520 ca         1 R3X      -0.071500
      7 CAC         -5.7140    -0.0650     0.0120 ca         1 R3X      -0.063800
      8 CAG         -4.3520    -0.5700    -0.0530 ce         1 R3X      -0.179200
      9 CAH         -3.2290     0.1600     0.0170 cf         1 R3X      -0.123200
     10 CAI         -1.8690    -0.3480    -0.0900 ca         1 R3X      -0.023800
     11 CAN         -0.8240     0.4910     0.2950 ca         1 R3X      -0.176000
     12 CAJ         -1.5990    -1.6280    -0.5770 ca         1 R3X      -0.173000
     13 CAK         -0.2830    -2.0590    -0.6500 ca         1 R3X       0.165100
     14 OAO         -0.0350    -3.2930    -1.1180 oh         1 R3X      -0.551100
     15 CAL          0.7640    -1.2360    -0.2450 ca         1 R3X      -0.239000
     16 CAM          0.4930     0.0440     0.2240 ca         1 R3X       0.173100
     17 O1           1.4500     0.9100     0.6450 os         1 R3X      -0.364100
     18 C1           2.7030     0.8560     0.0070 c6         1 R3X       0.363300
     19 C2           3.6070     1.9540     0.5490 c6         1 R3X       0.098300
     20 C3           5.0020     1.8210    -0.0840 c6         1 R3X       0.167300
     21 C4           5.5350     0.3920     0.0250 c6         1 R3X       0.179300
     22 C5           4.4520    -0.5500    -0.5050 c6         1 R3X      -0.030700
     23 C6           4.8030    -2.0590    -0.5320 c          1 R3X       0.750000
     24 O2           3.1310     3.2500     0.2570 oh         1 R3X      -0.733000
     25 O3           5.8990     2.7110     0.5260 oh         1 R3X      -0.643000
     26 O4           6.7090     0.2670    -0.7110 oh         1 R3X      -0.752000
     27 O5           3.2910    -0.3590     0.2740 os         1 R3X      -0.441000
     28 O6A          6.0220    -2.3050    -0.6480 o          1 R3X      -0.705000
     29 O6B          3.8460    -2.8410    -0.4910 o          1 R3X      -0.705000
     30 HAB         -6.5570    -2.0340     0.1760 ha         1 R3X       0.114500
     31 HAA         -8.8880    -1.2980     0.2420 ha         1 R3X       0.116000
     32 HAP        -10.2880     0.5430     0.3090 ho         1 R3X       0.456000
     33 HAE         -7.5930     2.7800    -0.0750 ha         1 R3X       0.116000
     34 HAD         -5.2760     2.0380    -0.1540 ha         1 R3X       0.114500
     35 HAG         -4.2670    -1.6470    -0.1530 ha         1 R3X       0.177000
     36 HAH         -3.3040     1.2310     0.1800 ha         1 R3X       0.165000
     37 HAN         -1.0290     1.4900     0.6600 ha         1 R3X       0.113000
     38 HAJ         -2.3880    -2.2840    -0.9190 ha         1 R3X       0.118000
     39 HAO          0.9170    -3.4580    -1.1040 ho         1 R3X       0.498000
     40 HAL          1.7780    -1.6220    -0.2770 ha         1 R3X       0.199000
     41 H1           2.5530     0.9910    -1.0820 h2         1 R3X       0.033700
     42 H2           3.7070     1.7990     1.6340 h1         1 R3X       0.061700
     43 H3           4.8990     2.0410    -1.1610 h1         1 R3X       0.038700
     44 HA           2.3470     3.4040     0.7890 ho         1 R3X       0.509000
     45 H4           5.6910     0.1610     1.0940 h1         1 R3X       0.044700
     46 HB           5.5610     3.6000     0.3910 ho         1 R3X       0.437000
     47 H5           4.2490    -0.2670    -1.5560 h1         1 R3X       0.030700
     48 HC           6.8120    -0.7090    -0.7860 ho         1 R3X       0.567000
@<TRIPOS>BOND
     1     1     2 ar  
     2     1     7 ar  
     3     1    30 1   
     4     2     3 ar  
     5     2    31 1   
     6     3     4 1   
     7     3     5 ar  
     8     4    32 1   
     9     5     6 ar  
    10     5    33 1   
    11     6     7 ar  
    12     6    34 1   
    13     7     8 1   
    14     8     9 2   
    15     8    35 1   
    16     9    10 1   
    17     9    36 1   
    18    10    11 ar  
    19    10    12 ar  
    20    11    16 ar  
    21    11    37 1   
    22    12    13 ar  
    23    12    38 1   
    24    13    14 1   
    25    13    15 ar  
    26    14    39 1   
    27    15    16 ar  
    28    15    40 1   
    29    16    17 1   
    30    17    18 1   
    31    18    19 1   
    32    18    27 1   
    33    18    41 1   
    34    19    20 1   
    35    19    24 1   
    36    19    42 1   
    37    20    21 1   
    38    20    25 1   
    39    20    43 1   
    40    21    22 1   
    41    21    26 1   
    42    21    45 1   
    43    22    23 1   
    44    22    27 1   
    45    22    47 1   
    46    23    28 1   
    47    23    29 1   
    48    24    44 1   
    49    25    46 1   
    50    26    48 1   
@<TRIPOS>SUBSTRUCTURE
     1 R3X         1 TEMP              0 ****  ****    0 ROOT
