@<TRIPOS>MOLECULE
R3Y
   53    57     1     0     0
SMALL
No Charge or Current Charge


@<TRIPOS>ATOM
      1 C1          25.7060     0.7610    24.8550 c3         1 R3Y      -0.043800
      2 C2          25.7190     0.1110    26.2340 ca         1 R3Y      -0.071300
      3 C3          25.8410    -1.2890    26.3310 ca         1 R3Y      -0.089000
      4 C4          25.8310    -1.9170    27.5850 ca         1 R3Y       0.115000
      5 C5          25.6830    -1.1590    28.7550 ca         1 R3Y      -0.076000
      6 C6          25.5610     0.2490    28.6970 cp         1 R3Y      -0.074000
      7 C7          25.6110     0.8770    27.4190 ca         1 R3Y       0.118100
      8 C11         26.4780     4.2960    28.2770 c5         1 R3Y       0.149800
      9 C17         25.3640     1.0310    29.9540 cp         1 R3Y       0.026000
     10 C18         24.2260     1.8490    30.1670 ca         1 R3Y      -0.128000
     11 C19         24.0930     2.5900    31.3660 ca         1 R3Y       0.336900
     12 C21         26.0910     1.7980    32.1440 ca         1 R3Y       0.360800
     13 C23         28.2320     0.8560    32.5620 cc         1 R3Y      -0.088600
     14 C30         31.6510     3.4770    32.3320 c5         1 R3Y      -0.167900
     15 C31         31.7700     3.4610    33.8860 c5         1 R3Y      -0.167900
     16 C32         30.6030     2.5500    34.2930 c          1 R3Y       0.566000
     17 O8          25.4980     2.2540    27.3550 os         1 R3Y      -0.334100
     18 C9          26.7570     2.8530    27.7900 c5         1 R3Y       0.111300
     19 N12         27.8310     4.9260    28.3060 n7         1 R3Y      -0.851400
     20 C13         28.5820     4.2900    27.1720 c5         1 R3Y       0.125800
     21 C14         27.6750     3.1630    26.5740 c5         1 R3Y       0.153300
     22 F16         26.9540     3.6530    25.4750 f          1 R3Y      -0.249000
     23 N20         25.0200     2.5780    32.3600 nb         1 R3Y      -0.627000
     24 C22         27.2140     1.6740    33.0270 cd         1 R3Y      -0.251800
     25 S24         27.8350     0.1680    30.9550 ss         1 R3Y       0.095400
     26 C25         26.2870     1.0480    31.0170 ca         1 R3Y      -0.221000
     27 C26         29.5440     0.5500    33.2310 c3         1 R3Y       0.168200
     28 N27         30.4350     1.7250    33.1890 n          1 R3Y      -0.392400
     29 C28         31.1150     2.0710    32.0300 c          1 R3Y       0.566000
     30 Cl34        25.9790    -3.6670    27.6890 cl         1 R3Y      -0.192000
     31 H1          25.0790     1.6600    24.8350 hc         1 R3Y       0.051367
     32 H2          26.7180     1.0450    24.5460 hc         1 R3Y       0.051367
     33 H3          25.3090     0.0760    24.0960 hc         1 R3Y       0.051367
     34 H4          25.9390    -1.8930    25.4330 ha         1 R3Y       0.133000
     35 H5          25.6500    -1.6650    29.7160 ha         1 R3Y       0.140000
     36 H6          25.8170     4.8230    27.5730 h1         1 R3Y       0.072700
     37 H7          25.9960     4.3130    29.2650 h1         1 R3Y       0.072700
     38 H8          23.4510     1.9140    29.4090 ha         1 R3Y       0.137000
     39 H9          23.2190     3.2190    31.5290 h4         1 R3Y       0.027100
     40 H10         32.5680     3.6950    31.7740 hc         1 R3Y       0.087950
     41 H11         32.7000     2.9480    34.1570 hc         1 R3Y       0.087950
     42 H12         27.2630     2.2560    28.5610 h1         1 R3Y       0.054700
     43 H13         28.2930     4.6600    29.1860 hn         1 R3Y       0.414000
     44 H15         29.5300     3.8700    27.5370 h1         1 R3Y       0.052700
     45 H16         28.8330     5.0330    26.4030 h1         1 R3Y       0.052700
     46 H17         28.2540     2.2900    26.2460 h1         1 R3Y       0.066700
     47 H18         27.2620     2.1980    33.9760 ha         1 R3Y       0.227000
     48 H19         29.3620     0.2520    34.2720 h1         1 R3Y       0.083200
     49 H20         30.0290    -0.2970    32.7280 h1         1 R3Y       0.083200
     50 H14         30.8720     4.1950    32.0500 hc         1 R3Y       0.087950
     51 H21         31.7270     4.4330    34.3890 hc         1 R3Y       0.087950
     52 O33         29.8420     2.6270    35.2450 o          1 R3Y      -0.494500
     53 O29         31.3680     1.3160    31.1030 o          1 R3Y      -0.494500
@<TRIPOS>BOND
     1     1     2 1   
     2     1    31 1   
     3     1    32 1   
     4     1    33 1   
     5     2     3 ar  
     6     2     7 ar  
     7     3     4 ar  
     8     3    34 1   
     9     4     5 ar  
    10     4    30 1   
    11     5     6 ar  
    12     5    35 1   
    13     6     7 ar  
    14     6     9 1   
    15     7    17 1   
    16     8    18 1   
    17     8    19 1   
    18     8    36 1   
    19     8    37 1   
    20     9    10 ar  
    21     9    26 ar  
    22    10    11 ar  
    23    10    38 1   
    24    11    23 ar  
    25    11    39 1   
    26    12    23 ar  
    27    12    24 1   
    28    12    26 ar  
    29    13    24 2   
    30    13    25 1   
    31    13    27 1   
    32    14    15 1   
    33    14    29 1   
    34    14    40 1   
    35    14    50 1   
    36    15    16 1   
    37    15    41 1   
    38    15    51 1   
    39    16    28 1   
    40    16    52 2   
    41    17    18 1   
    42    18    21 1   
    43    18    42 1   
    44    19    20 1   
    45    19    43 1   
    46    20    21 1   
    47    20    44 1   
    48    20    45 1   
    49    21    22 1   
    50    21    46 1   
    51    24    47 1   
    52    25    26 1   
    53    27    28 1   
    54    27    48 1   
    55    27    49 1   
    56    28    29 1   
    57    29    53 2   
@<TRIPOS>SUBSTRUCTURE
     1 R3Y         1 TEMP              0 ****  ****    0 ROOT
