@<TRIPOS>MOLECULE
R3Y
   53    57     1     0     0
SMALL
bcc


@<TRIPOS>ATOM
      1 C1          26.4950     0.9670    25.1090 c3         1 R3Y      -0.043800
      2 C2          26.1810     0.2120    26.3660 ca         1 R3Y      -0.071300
      3 C3          26.1740    -1.1790    26.3720 ca         1 R3Y      -0.107000
      4 C4          25.8930    -1.8770    27.5350 ca         1 R3Y       0.023400
      5 C5          25.5860    -1.2170    28.7100 ca         1 R3Y      -0.094000
      6 C6          25.5670     0.1730    28.7150 cp         1 R3Y      -0.074000
      7 C7          25.8840     0.8800    27.5550 ca         1 R3Y       0.118100
      8 C11         26.4730     4.1090    29.0350 c5         1 R3Y       0.149800
      9 C17         25.1970     0.8980    29.9510 cp         1 R3Y       0.026000
     10 C18         23.9770     1.5360    30.0980 ca         1 R3Y      -0.211300
     11 C19         23.6890     2.2230    31.2810 ca         1 R3Y       0.402200
     12 C21         25.7110     1.7350    32.1690 ca         1 R3Y       0.426100
     13 C23         27.8800     1.1250    32.7080 cc         1 R3Y      -0.088600
     14 C30         31.8510     2.4610    31.1810 c5         1 R3Y      -0.167900
     15 C31         31.4390     3.6810    31.9970 c5         1 R3Y      -0.167900
     16 C32         30.3640     3.1870    32.9290 c          1 R3Y       0.708500
     17 O8          25.8720     2.2410    27.5700 os         1 R3Y      -0.310900
     18 C9          26.9300     2.8800    28.2580 c5         1 R3Y       0.088100
     19 N12         27.6960     4.8710    29.2630 n7         1 R3Y      -0.796200
     20 C13         28.7020     4.4480    28.2750 c5         1 R3Y       0.125800
     21 C14         28.0090     3.4580    27.3540 c5         1 R3Y       0.134600
     22 F16         27.3940     4.1320    26.3000 f          1 R3Y      -0.230300
     23 N20         24.5260     2.3340    32.2960 nb         1 R3Y      -0.627000
     24 C22         26.7800     1.7890    33.1240 cd         1 R3Y      -0.201800
     25 S24         27.6800     0.3770    31.1450 ss         1 R3Y      -0.031500
     26 C25         26.0700     0.9970    31.0280 ca         1 R3Y      -0.159400
     27 C26         29.2010     1.0390    33.4000 c3         1 R3Y       0.168200
     28 N27         30.1950     1.8340    32.7070 n          1 R3Y      -0.526400
     29 C28         30.9890     1.3380    31.6950 c          1 R3Y       0.708500
     30 CL34        25.9100    -3.6100    27.5120 cl         1 R3Y      -0.100400
     31 H1          25.7230     1.6990    24.8760 hc         1 R3Y       0.051367
     32 H2          27.4390     1.5080    25.1900 hc         1 R3Y       0.051367
     33 H3          26.5810     0.2840    24.2660 hc         1 R3Y       0.051367
     34 H4          26.4010    -1.7160    25.4610 ha         1 R3Y       0.151000
     35 H5          25.3460    -1.7660    29.6110 ha         1 R3Y       0.158000
     36 H6          25.7520     4.6800    28.4420 h1         1 R3Y       0.072700
     37 H7          25.9890     3.8540    29.9770 h1         1 R3Y       0.072700
     38 H8          23.2430     1.5060    29.3040 ha         1 R3Y       0.155000
     39 H9          22.7280     2.7120    31.3900 h4         1 R3Y       0.027100
     40 H10         32.9010     2.1970    31.3090 hc         1 R3Y       0.087950
     41 H11         32.2580     4.0960    32.5850 hc         1 R3Y       0.087950
     42 H12         27.4280     2.1840    28.9430 h1         1 R3Y       0.054700
     43 H13         28.0350     4.7150    30.2000 hn         1 R3Y       0.358800
     44 H15         29.5560     3.9600    28.7510 h1         1 R3Y       0.052700
     45 H16         29.1000     5.2890    27.7010 h1         1 R3Y       0.052700
     46 H17         28.6830     2.7160    26.9240 h1         1 R3Y       0.066700
     47 H18         26.7190     2.3210    34.0630 ha         1 R3Y       0.177000
     48 H19         29.1040     1.4110    34.4180 h1         1 R3Y       0.083200
     49 H20         29.5590     0.0110    33.4590 h1         1 R3Y       0.083200
     50 H14         31.6800     2.5820    30.1100 hc         1 R3Y       0.087950
     51 H21         31.0450     4.4950    31.3880 hc         1 R3Y       0.087950
     52 O33         29.7340     3.8200    33.7380 o          1 R3Y      -0.570000
     53 O29         30.9520     0.1940    31.3120 o          1 R3Y      -0.570000
@<TRIPOS>BOND
     1     1     2 1   
     2     1    31 1   
     3     1    32 1   
     4     1    33 1   
     5     2     3 ar  
     6     2     7 ar  
     7     3     4 ar  
     8     3    34 1   
     9     4     5 ar  
    10     4    30 1   
    11     5     6 ar  
    12     5    35 1   
    13     6     7 ar  
    14     6     9 1   
    15     7    17 1   
    16     8    18 1   
    17     8    19 1   
    18     8    36 1   
    19     8    37 1   
    20     9    10 ar  
    21     9    26 ar  
    22    10    11 ar  
    23    10    38 1   
    24    11    23 ar  
    25    11    39 1   
    26    12    23 ar  
    27    12    24 1   
    28    12    26 ar  
    29    13    24 2   
    30    13    25 1   
    31    13    27 1   
    32    14    15 1   
    33    14    29 1   
    34    14    40 1   
    35    14    50 1   
    36    15    16 1   
    37    15    41 1   
    38    15    51 1   
    39    16    28 1   
    40    16    52 2   
    41    17    18 1   
    42    18    21 1   
    43    18    42 1   
    44    19    20 1   
    45    19    43 1   
    46    20    21 1   
    47    20    44 1   
    48    20    45 1   
    49    21    22 1   
    50    21    46 1   
    51    24    47 1   
    52    25    26 1   
    53    27    28 1   
    54    27    48 1   
    55    27    49 1   
    56    28    29 1   
    57    29    53 2   
@<TRIPOS>SUBSTRUCTURE
     1 R3Y         1 TEMP              0 ****  ****    0 ROOT
