@<TRIPOS>MOLECULE
R3Z
   35    38     1     0     0
SMALL
No Charge or Current Charge


@<TRIPOS>ATOM
      1 C1           5.4250    -1.0370    -1.2050 ca         1 R3Z      -0.109000
      2 C2           4.3680    -1.9490    -1.3800 ca         1 R3Z      -0.108000
      3 C3           3.0830    -1.6430    -0.8960 ca         1 R3Z      -0.106000
      4 C4           2.8550    -0.4240    -0.2370 ca         1 R3Z       0.058100
      5 C5           3.9240     0.4860    -0.0410 ca         1 R3Z       0.052100
      6 C6           5.2030     0.1810    -0.5360 ca         1 R3Z      -0.103000
      7 O7           3.7230     1.6740     0.6340 os         1 R3Z      -0.323100
      8 C8           2.5050     1.8040     1.4000 c6         1 R3Z       0.125600
      9 C9           1.3130     1.2420     0.5900 c6         1 R3Z       0.106300
     10 O10          1.5850    -0.1270     0.2130 os         1 R3Z      -0.338100
     11 C11         -0.0270     1.2860     1.3790 c3         1 R3Z       0.115000
     12 N12         -1.2140     0.7860     0.6280 n          1 R3Z      -0.275000
     13 C13         -1.6290    -0.5410     0.6710 cc         1 R3Z       0.126600
     14 C14         -0.9490    -1.5610     1.3900 cc         1 R3Z      -0.155000
     15 C15         -1.5560    -2.7880     1.2780 cd         1 R3Z      -0.215000
     16 S16         -3.0120    -2.7060     0.2620 ss         1 R3Z       0.343000
     17 C17         -2.7340    -0.9790     0.0200 cd         1 R3Z      -0.395600
     18 C18         -3.5710    -0.0920    -0.7850 c          1 R3Z       0.622600
     19 O19         -4.5730    -0.4720    -1.3760 o          1 R3Z      -0.540000
     20 N20         -3.1150     1.2410    -0.8110 n          1 R3Z      -0.246900
     21 C21         -1.9660     1.7160    -0.1290 c          1 R3Z       0.641000
     22 O22         -1.6410     2.8960    -0.2010 o          1 R3Z      -0.519000
     23 O23         -3.8810     2.2020    -1.6100 oh         1 R3Z      -0.409100
     24 H1           6.4160    -1.2750    -1.5840 ha         1 R3Z       0.119000
     25 H2           4.5440    -2.8920    -1.8950 ha         1 R3Z       0.119000
     26 H3           2.2640    -2.3440    -1.0380 ha         1 R3Z       0.127000
     27 H6           6.0220     0.8820    -0.3930 ha         1 R3Z       0.129000
     28 H8           2.6140     1.2400     2.3380 h1         1 R3Z       0.067200
     29 H8A          2.3460     2.8620     1.6490 h1         1 R3Z       0.067200
     30 H9           1.1990     1.8400    -0.3260 h1         1 R3Z       0.089700
     31 H11          0.0890     0.7180     2.3090 h1         1 R3Z       0.077200
     32 H11A        -0.2040     2.3230     1.6920 h1         1 R3Z       0.077200
     33 H14         -0.0410    -1.3990     1.9600 ha         1 R3Z       0.149000
     34 H15         -1.2530    -3.7320     1.7140 h4         1 R3Z       0.157000
     35 HO23        -4.5560     2.5720    -0.9960 ho         1 R3Z       0.476000
@<TRIPOS>BOND
     1     1     2 ar  
     2     1     6 ar  
     3     1    24 1   
     4     2     3 ar  
     5     2    25 1   
     6     3     4 ar  
     7     3    26 1   
     8     4     5 ar  
     9     4    10 1   
    10     5     6 ar  
    11     5     7 1   
    12     6    27 1   
    13     7     8 1   
    14     8     9 1   
    15     8    28 1   
    16     8    29 1   
    17     9    10 1   
    18     9    11 1   
    19     9    30 1   
    20    11    12 1   
    21    11    31 1   
    22    11    32 1   
    23    12    13 1   
    24    12    21 1   
    25    13    14 1   
    26    13    17 2   
    27    14    15 2   
    28    14    33 1   
    29    15    16 1   
    30    15    34 1   
    31    16    17 1   
    32    17    18 1   
    33    18    19 2   
    34    18    20 1   
    35    20    21 1   
    36    20    23 1   
    37    21    22 2   
    38    23    35 1   
@<TRIPOS>SUBSTRUCTURE
     1 R3Z         1 TEMP              0 ****  ****    0 ROOT
