@<TRIPOS>MOLECULE
R3Z
   35    38     1     0     0
SMALL
abcg2


@<TRIPOS>ATOM
      1 C1           5.2170    -0.9750    -1.3190 ca         1 R3Z      -0.109000
      2 C2           4.1310    -1.8040    -1.5680 ca         1 R3Z      -0.108000
      3 C3           2.8810    -1.4800    -1.0620 ca         1 R3Z      -0.106000
      4 C4           2.7130    -0.3340    -0.2970 ca         1 R3Z       0.058100
      5 C5           3.8090     0.4900    -0.0290 ca         1 R3Z       0.052100
      6 C6           5.0560     0.1660    -0.5460 ca         1 R3Z      -0.103000
      7 O7           3.6860     1.6110     0.7250 os         1 R3Z      -0.323100
      8 C8           2.5020     1.6720     1.4960 c6         1 R3Z       0.125600
      9 C9           1.3060     1.2820     0.6480 c6         1 R3Z       0.106300
     10 O10          1.4740    -0.0420     0.1700 os         1 R3Z      -0.338100
     11 C11          0.0250     1.3130     1.4590 c3         1 R3Z       0.115000
     12 N12         -1.1180     0.8170     0.7060 n          1 R3Z      -0.275000
     13 C13         -1.5240    -0.4910     0.8020 cc         1 R3Z       0.126600
     14 C14         -0.9460    -1.5220     1.5910 cc         1 R3Z      -0.155000
     15 C15         -1.6310    -2.6900     1.4580 cd         1 R3Z      -0.215000
     16 S16         -2.9640    -2.5900     0.3940 ss         1 R3Z       0.343000
     17 C17         -2.6230    -0.9340     0.1030 cd         1 R3Z      -0.395600
     18 C18         -3.3720    -0.0820    -0.7580 c          1 R3Z       0.622600
     19 O19         -4.3580    -0.3600    -1.4200 o          1 R3Z      -0.540000
     20 N20         -2.8550     1.2000    -0.7910 n          1 R3Z      -0.246900
     21 C21         -1.7640     1.7110    -0.1180 c          1 R3Z       0.641000
     22 O22         -1.4170     2.8630    -0.2510 o          1 R3Z      -0.519000
     23 O23         -3.4800     2.1020    -1.5950 oh         1 R3Z      -0.409100
     24 H1           6.1940    -1.2170    -1.7160 ha         1 R3Z       0.119000
     25 H2           4.2510    -2.6990    -2.1640 ha         1 R3Z       0.119000
     26 H3           2.0230    -2.1110    -1.2580 ha         1 R3Z       0.127000
     27 H6           5.8970     0.8150    -0.3360 ha         1 R3Z       0.129000
     28 H8           2.5780     1.0080     2.3650 h1         1 R3Z       0.067200
     29 H8A          2.4040     2.6970     1.8510 h1         1 R3Z       0.067200
     30 H9           1.2310     1.9700    -0.2030 h1         1 R3Z       0.089700
     31 H11          0.1240     0.7130     2.3620 h1         1 R3Z       0.077200
     32 H11A        -0.1780     2.3320     1.7810 h1         1 R3Z       0.077200
     33 H14         -0.0710    -1.4250     2.2140 ha         1 R3Z       0.149000
     34 H15         -1.4030    -3.6260     1.9450 h4         1 R3Z       0.157000
     35 HO23        -4.2430     1.6110    -1.9490 ho         1 R3Z       0.476000
@<TRIPOS>BOND
     1     1     2 ar  
     2     1     6 ar  
     3     1    24 1   
     4     2     3 ar  
     5     2    25 1   
     6     3     4 ar  
     7     3    26 1   
     8     4     5 ar  
     9     4    10 1   
    10     5     6 ar  
    11     5     7 1   
    12     6    27 1   
    13     7     8 1   
    14     8     9 1   
    15     8    28 1   
    16     8    29 1   
    17     9    10 1   
    18     9    11 1   
    19     9    30 1   
    20    11    12 1   
    21    11    31 1   
    22    11    32 1   
    23    12    13 1   
    24    12    21 1   
    25    13    14 1   
    26    13    17 2   
    27    14    15 2   
    28    14    33 1   
    29    15    16 1   
    30    15    34 1   
    31    16    17 1   
    32    17    18 1   
    33    18    19 2   
    34    18    20 1   
    35    20    21 1   
    36    20    23 1   
    37    21    22 2   
    38    23    35 1   
@<TRIPOS>SUBSTRUCTURE
     1 R3Z         1 TEMP              0 ****  ****    0 ROOT
