@<TRIPOS>MOLECULE
R41
   44    47     1     0     0
SMALL
No Charge or Current Charge


@<TRIPOS>ATOM
      1 C2           4.6630     4.5540    90.3370 ca         1 R41       0.597900
      2 C4           6.6970     5.5710    90.2560 ca         1 R41       0.377900
      3 C5           7.1690     4.8040    91.3340 ca         1 R41      -0.203000
      4 C6           6.3260     3.8520    91.9530 cp         1 R41       0.048000
      5 C7           5.0270     3.7370    91.4090 ca         1 R41      -0.221000
      6 C8           6.7720     3.0040    93.1030 cp         1 R41      -0.056000
      7 C12          7.5960     1.3820    95.3170 ca         1 R41      -0.041000
      8 C15          8.4900     4.9670    95.6060 c5         1 R41       0.079300
      9 C17          7.5840     3.4990    94.1520 ca         1 R41       0.128100
     10 C18          7.3690     5.6750    96.4530 c          1 R41       0.590100
     11 C21          7.6950     7.7260    94.8790 c6         1 R41       0.058500
     12 C24          4.9260     8.1260    95.6970 c6         1 R41       0.129300
     13 N1           3.4620     4.5170    89.7550 nv         1 R41      -1.054900
     14 N3           5.4480     5.4480    89.7560 nb         1 R41      -0.740000
     15 C9           6.3770     1.6420    93.2080 ca         1 R41      -0.062000
     16 C10          6.7870     0.8430    94.2980 ca         1 R41       0.087000
     17 Cl11         6.2800    -0.8400    94.3860 cl         1 R41      -0.201000
     18 C13          7.9800     2.7270    95.2190 ca         1 R41      -0.145300
     19 C14          8.8130     3.5230    96.1750 c5         1 R41      -0.039100
     20 O16          8.0260     4.7900    94.2170 os         1 R41      -0.325100
     21 O19          6.7450     5.1620    97.3780 o          1 R41      -0.597100
     22 N20          7.1520     7.0400    96.0930 n          1 R41      -0.395800
     23 C22          6.5630     7.9910    93.8470 c6         1 R41       0.129300
     24 N23          5.4440     8.7690    94.4540 n7         1 R41      -0.839400
     25 C25          6.0630     7.8420    96.7210 c6         1 R41       0.058500
     26 H1           7.3430     6.3050    89.7740 h4         1 R41       0.014100
     27 H2           8.1910     4.9450    91.6730 ha         1 R41       0.130000
     28 H3           4.3100     3.0370    91.8250 ha         1 R41       0.124000
     29 H4           7.9080     0.7710    96.1600 ha         1 R41       0.136000
     30 H5           9.3790     5.6090    95.6240 h1         1 R41       0.089700
     31 H7           8.1250     8.6900    95.1870 h1         1 R41       0.058200
     32 H8           4.1630     8.7690    96.1630 h1         1 R41       0.066700
     33 H9           4.4360     7.1740    95.4390 h1         1 R41       0.066700
     34 H10          3.4110     4.9820    88.8560 hn         1 R41       0.471500
     35 H11          2.9100     3.6730    89.8610 hn         1 R41       0.471500
     36 H12          5.7580     1.1970    92.4350 ha         1 R41       0.134000
     37 H13          8.5390     3.3810    97.2270 hc         1 R41       0.081700
     38 H14          9.8780     3.2850    96.0790 hc         1 R41       0.081700
     39 H15          6.1840     7.0250    93.4770 h1         1 R41       0.066700
     40 H16          6.9720     8.5350    92.9820 h1         1 R41       0.066700
     41 H17          5.8000     9.7020    94.7010 hn         1 R41       0.401000
     42 H19          6.4800     8.7940    97.0770 h1         1 R41       0.058200
     43 H20          5.6430     7.3290    97.5970 h1         1 R41       0.058200
     44 H6           8.5100     7.1740    94.3960 h1         1 R41       0.058200
@<TRIPOS>BOND
     1     1     5 ar  
     2     1    13 1   
     3     1    14 ar  
     4     2     3 ar  
     5     2    14 ar  
     6     2    26 1   
     7     3     4 ar  
     8     3    27 1   
     9     4     5 ar  
    10     4     6 1   
    11     5    28 1   
    12     6     9 ar  
    13     6    15 ar  
    14     7    16 ar  
    15     7    18 ar  
    16     7    29 1   
    17     8    10 1   
    18     8    19 1   
    19     8    20 1   
    20     8    30 1   
    21     9    18 ar  
    22     9    20 1   
    23    10    21 2   
    24    10    22 1   
    25    11    22 1   
    26    11    23 1   
    27    11    31 1   
    28    11    44 1   
    29    12    24 1   
    30    12    25 1   
    31    12    32 1   
    32    12    33 1   
    33    13    34 1   
    34    13    35 1   
    35    15    16 ar  
    36    15    36 1   
    37    16    17 1   
    38    18    19 1   
    39    19    37 1   
    40    19    38 1   
    41    22    25 1   
    42    23    24 1   
    43    23    39 1   
    44    23    40 1   
    45    24    41 1   
    46    25    42 1   
    47    25    43 1   
@<TRIPOS>SUBSTRUCTURE
     1 R41         1 TEMP              0 ****  ****    0 ROOT
