@<TRIPOS>MOLECULE
R41
   44    47     1     0     0
SMALL
abcg2


@<TRIPOS>ATOM
      1 C2           4.7260     4.8840    90.6070 ca         1 R41       0.597900
      2 C4           6.8910     5.5330    90.3110 ca         1 R41       0.377900
      3 C5           7.3560     4.7450    91.3430 ca         1 R41      -0.203000
      4 C6           6.4230     3.9730    92.0450 cp         1 R41       0.048000
      5 C7           5.0950     4.0420    91.6700 ca         1 R41      -0.221000
      6 C8           6.8300     3.1010    93.1620 cp         1 R41      -0.056000
      7 C12          7.5490     1.4630    95.3660 ca         1 R41      -0.041000
      8 C15          8.5750     5.0040    95.6380 c5         1 R41       0.079300
      9 C17          7.6350     3.5570    94.1960 ca         1 R41       0.128100
     10 C18          7.4420     5.7220    96.3920 c          1 R41       0.590100
     11 C21          7.6290     7.6430    94.7960 c6         1 R41       0.058500
     12 C24          4.8410     7.7150    95.3680 c6         1 R41       0.129300
     13 N1           3.4170     5.0190    90.2520 nv         1 R41      -1.054900
     14 N3           5.6170     5.6140    89.9410 nb         1 R41      -0.740000
     15 C9           6.3850     1.7780    93.2580 ca         1 R41      -0.062000
     16 C10          6.7440     0.9850    94.3340 ca         1 R41       0.087000
     17 CL11         6.1720    -0.6530    94.4030 cl         1 R41      -0.201000
     18 C13          7.9840     2.7680    95.2820 ca         1 R41      -0.145300
     19 C14          8.8460     3.5980    96.1860 c5         1 R41      -0.039100
     20 O16          8.1360     4.8070    94.2810 os         1 R41      -0.325100
     21 O19          6.9070     5.1820    97.3530 o          1 R41      -0.597100
     22 N20          7.0740     6.9330    95.9390 n          1 R41      -0.395800
     23 C22          6.5710     7.7660    93.7010 c6         1 R41       0.129300
     24 N23          5.3350     8.3700    94.1680 n7         1 R41      -0.839400
     25 C25          5.8900     7.5950    96.4710 c6         1 R41       0.058500
     26 H1           7.5880     6.1390    89.7410 h4         1 R41       0.014100
     27 H2           8.4100     4.7210    91.5780 ha         1 R41       0.130000
     28 H3           4.3400     3.4740    92.1980 ha         1 R41       0.124000
     29 H4           7.8180     0.8310    96.2010 ha         1 R41       0.136000
     30 H5           9.4760     5.6180    95.6150 h1         1 R41       0.089700
     31 H7           7.9210     8.6430    95.1340 h1         1 R41       0.058200
     32 H8           3.9770     8.2650    95.7450 h1         1 R41       0.066700
     33 H9           4.4940     6.7120    95.1010 h1         1 R41       0.066700
     34 H10          3.2360     5.4140    89.3430 hn         1 R41       0.471500
     35 H11          2.7800     4.2880    90.5200 hn         1 R41       0.471500
     36 H12          5.7610     1.3720    92.4730 ha         1 R41       0.134000
     37 H13          8.5970     3.5020    97.2400 hc         1 R41       0.081700
     38 H14          9.9000     3.3350    96.0640 hc         1 R41       0.081700
     39 H15          6.3510     6.7700    93.3050 h1         1 R41       0.066700
     40 H16          6.9690     8.3580    92.8760 h1         1 R41       0.066700
     41 H17          5.5000     9.3490    94.3720 hn         1 R41       0.401000
     42 H19          6.1760     8.5900    96.8260 h1         1 R41       0.058200
     43 H20          5.5050     7.0380    97.3210 h1         1 R41       0.058200
     44 H6           8.5280     7.1670    94.4190 h1         1 R41       0.058200
@<TRIPOS>BOND
     1     1     5 ar  
     2     1    13 1   
     3     1    14 ar  
     4     2     3 ar  
     5     2    14 ar  
     6     2    26 1   
     7     3     4 ar  
     8     3    27 1   
     9     4     5 ar  
    10     4     6 1   
    11     5    28 1   
    12     6     9 ar  
    13     6    15 ar  
    14     7    16 ar  
    15     7    18 ar  
    16     7    29 1   
    17     8    10 1   
    18     8    19 1   
    19     8    20 1   
    20     8    30 1   
    21     9    18 ar  
    22     9    20 1   
    23    10    21 2   
    24    10    22 1   
    25    11    22 1   
    26    11    23 1   
    27    11    31 1   
    28    11    44 1   
    29    12    24 1   
    30    12    25 1   
    31    12    32 1   
    32    12    33 1   
    33    13    34 1   
    34    13    35 1   
    35    15    16 ar  
    36    15    36 1   
    37    16    17 1   
    38    18    19 1   
    39    19    37 1   
    40    19    38 1   
    41    22    25 1   
    42    23    24 1   
    43    23    39 1   
    44    23    40 1   
    45    24    41 1   
    46    25    42 1   
    47    25    43 1   
@<TRIPOS>SUBSTRUCTURE
     1 R41         1 TEMP              0 ****  ****    0 ROOT
