@<TRIPOS>MOLECULE
R42
  111   116     1     0     0
SMALL
No Charge or Current Charge


@<TRIPOS>ATOM
      1 C2          -3.1350    62.3190    25.2710 c3         1 R42       0.167300
      2 C3          -3.5020    62.4560    26.8670 c6         1 R42      -0.048700
      3 C4          -2.5200    61.6110    27.7980 cy         1 R42       0.144000
      4 C5          -3.0590    61.0750    29.2360 cy         1 R42       0.150300
      5 C6          -4.4760    61.5150    29.6650 c6         1 R42      -0.107400
      6 C7          -5.0840    62.6410    28.8080 c6         1 R42       0.167300
      7 C9          -6.0360    63.3900    26.6140 c          1 R42       0.561100
      8 C10         -5.6490    64.9060    26.5340 c3         1 R42       0.121500
      9 C11         -4.3640    65.1880    25.6900 c2         1 R42      -0.100400
     10 C12         -3.2990    65.8500    26.2190 c2         1 R42      -0.111400
     11 C13         -1.9280    65.8060    25.4610 c6         1 R42       0.202500
     12 C15         -4.2350    64.5450    24.2680 c6         1 R42      -0.005800
     13 C16         -5.4930    63.7550    23.7270 c3         1 R42      -0.087600
     14 C17         -4.1620    65.7090    23.1980 c3         1 R42      -0.087600
     15 C1          -2.9500    63.6230    24.3080 c6         1 R42       0.199000
     16 C14         -1.6630    64.4550    24.6890 c6         1 R42      -0.114400
     17 C18         -3.2540    66.6060    27.5430 c3         1 R42      -0.053900
     18 C20         -2.4510    60.0220    27.5250 cy         1 R42       0.148600
     19 C22         -0.5640    59.7710    24.1140 ca         1 R42      -0.143600
     20 C23          0.5010    60.1460    24.9670 ca         1 R42      -0.048500
     21 C24          1.7450    59.4970    24.8780 ca         1 R42      -0.132500
     22 C25          1.9450    58.4760    23.9360 ca         1 R42      -0.086000
     23 C26          0.8950    58.1000    23.0830 ca         1 R42      -0.132500
     24 C27         -0.3530    58.7410    23.1710 ca         1 R42      -0.048500
     25 C29          0.5100    63.7180    28.7970 c3         1 R42      -0.164100
     26 C30          0.3470    66.6930    25.5900 c          1 R42       0.565100
     27 C31          1.5540    67.0000    26.5180 c3         1 R42       0.105300
     28 C32          2.6040    65.8430    26.4930 c3         1 R42       0.150000
     29 C33          3.8840    66.1540    27.2770 ca         1 R42      -0.091300
     30 C34          4.0260    65.6840    28.6000 ca         1 R42      -0.096000
     31 C35          5.1960    65.9510    29.3320 ca         1 R42      -0.105500
     32 C36          6.2380    66.6900    28.7480 ca         1 R42      -0.102000
     33 C37          6.1090    67.1610    27.4320 ca         1 R42      -0.105500
     34 C38          4.9390    66.8950    26.6990 ca         1 R42      -0.096000
     35 C40          2.8110    63.9040    23.1550 ce         1 R42      -0.163400
     36 C41          3.5480    64.7550    22.3910 c2         1 R42      -0.259000
     37 C42          2.3830    62.5470    22.5800 c3         1 R42      -0.088200
     38 C43          0.9940    62.5800    21.9340 c          1 R42       0.596100
     39 C44         -0.1660    62.6170    19.8240 c3         1 R42       0.147900
     40 C8          -5.0560    62.3310    27.2690 c6         1 R42      -0.111000
     41 N32          2.9060    65.3600    25.1340 ns         1 R42      -0.502900
     42 O1          -2.7220    63.1430    22.9750 oh         1 R42      -0.674000
     43 O10         -6.8070    65.7400    26.1550 oh         1 R42      -0.652000
     44 O13         -0.7390    66.1520    26.2440 os         1 R42      -0.434100
     45 O2          -1.9260    61.5010    25.0840 os         1 R42      -0.458100
     46 O21         -2.8820    60.0810    23.5540 o          1 R42      -0.479000
     47 O28         -1.8180    63.8880    29.4200 o          1 R42      -0.506000
     48 O30          0.3530    66.9720    24.3960 o          1 R42      -0.494000
     49 O31          2.1670    68.2740    26.1680 oh         1 R42      -0.649000
     50 O39          1.7450    63.4180    25.2530 o          1 R42      -0.612100
     51 O4          -1.1880    62.2570    27.8910 os         1 R42      -0.435100
     52 O43         -0.0560    62.6010    22.5610 o          1 R42      -0.500000
     53 O44          1.0680    62.5860    20.5650 os         1 R42      -0.446100
     54 O5          -3.0020    59.6150    28.8680 oq         1 R42      -0.456000
     55 O7          -6.4220    62.8670    29.2550 oh         1 R42      -0.662000
     56 O9          -7.1290    63.0460    26.1610 o          1 R42      -0.511100
     57 H1          -3.9780    61.7590    24.8600 h1         1 R42       0.093700
     58 H2          -3.2100    63.4770    27.1120 hc         1 R42       0.080700
     59 H3          -2.3370    61.2700    30.0380 h1         1 R42       0.071700
     60 H4          -4.4290    61.8500    30.7090 hc         1 R42       0.067700
     61 H5          -5.1440    60.6430    29.6730 hc         1 R42       0.067700
     62 H6          -4.4960    63.5540    28.9910 h1         1 R42       0.052700
     63 H7          -5.4140    65.1300    27.5790 h1         1 R42       0.068700
     64 H10         -2.0150    66.6130    24.7270 h1         1 R42       0.086700
     65 H11         -5.6500    62.7800    24.1870 hc         1 R42       0.046033
     66 H12         -6.4160    64.3370    23.8220 hc         1 R42       0.046033
     67 H13         -5.3920    63.5220    22.6590 hc         1 R42       0.046033
     68 H14         -3.2650    66.3230    23.2280 hc         1 R42       0.046033
     69 H15         -4.1950    65.3260    22.1710 hc         1 R42       0.046033
     70 H16         -5.0140    66.3910    23.3090 hc         1 R42       0.046033
     71 H17         -0.9860    63.8340    25.2900 hc         1 R42       0.070700
     72 H18         -1.0920    64.7100    23.7860 hc         1 R42       0.070700
     73 H19         -2.7910    67.5900    27.4050 hc         1 R42       0.052367
     74 H20         -4.2420    66.7990    27.9720 hc         1 R42       0.052367
     75 H21         -2.6600    66.0700    28.2890 hc         1 R42       0.052367
     76 H22         -5.1110    60.0760    27.3940 hc         1 R42       0.058033
     77 H23         -6.6850    60.8100    27.3150 hc         1 R42       0.058033
     78 H24         -5.6910    60.7130    25.8630 hc         1 R42       0.058033
     79 H25         -3.0790    59.6660    26.7030 h1         1 R42       0.076200
     80 H26         -1.4290    59.6510    27.3910 h1         1 R42       0.076200
     81 H27          0.3770    60.9410    25.6990 ha         1 R42       0.139500
     82 H28          2.5570    59.7930    25.5380 ha         1 R42       0.118500
     83 H29          2.9100    57.9790    23.8670 ha         1 R42       0.111000
     84 H30          1.0480    57.3090    22.3520 ha         1 R42       0.118500
     85 H31         -1.1550    58.4350    22.5020 ha         1 R42       0.139500
     86 H32          0.6330    64.7940    28.9600 hc         1 R42       0.078367
     87 H33          0.9730    63.1860    29.6350 hc         1 R42       0.078367
     88 H34          1.0200    63.3540    27.9000 hc         1 R42       0.078367
     89 H35          1.1560    67.0580    27.5400 h1         1 R42       0.092700
     90 H36          2.1270    65.0120    27.0210 h1         1 R42       0.098700
     91 H37          3.2290    65.1100    29.0670 ha         1 R42       0.107500
     92 H38          5.2950    65.5850    30.3510 ha         1 R42       0.115000
     93 H39          7.1440    66.8960    29.3150 ha         1 R42       0.116000
     94 H40          6.9140    67.7350    26.9790 ha         1 R42       0.115000
     95 H41          4.8540    67.2730    25.6840 ha         1 R42       0.107500
     96 H42          3.9020    65.7250    22.7380 ha         1 R42       0.176000
     97 H43          3.8190    64.5060    21.3640 ha         1 R42       0.176000
     98 H44          2.3680    61.7890    23.3680 hc         1 R42       0.093700
     99 H45          3.1080    62.2320    21.8210 hc         1 R42       0.093700
    100 H46          0.0350    62.6180    18.7450 h1         1 R42       0.055700
    101 H47         -0.7830    61.7380    20.0530 h1         1 R42       0.055700
    102 H48         -0.7450    63.5180    20.0630 h1         1 R42       0.055700
    103 H49          3.4960    65.9260    24.5420 hn         1 R42       0.329500
    104 H50         -1.7650    62.8870    22.9350 ho         1 R42       0.480000
    105 H51         -7.5580    65.1190    26.0100 ho         1 R42       0.469000
    106 H52          2.1160    68.3590    25.1890 ho         1 R42       0.473000
    107 H53         -6.3840    63.0140    30.2270 ho         1 R42       0.450000
    108 C19         -5.6580    60.9040    26.9420 c3         1 R42      -0.094100
    109 C21         -1.9090    60.4530    24.1960 c          1 R42       0.616700
    110 C28         -0.9540    63.3360    28.7580 c          1 R42       0.597100
    111 C39          2.4300    64.1830    24.5930 c          1 R42       0.602300
@<TRIPOS>BOND
     1     1     2 1   
     2     1    15 1   
     3     1    45 1   
     4     1    57 1   
     5     2     3 1   
     6     2    40 1   
     7     2    58 1   
     8     3     4 1   
     9     3    18 1   
    10     3    51 1   
    11     4     5 1   
    12     4    54 1   
    13     4    59 1   
    14     5     6 1   
    15     5    60 1   
    16     5    61 1   
    17     6    40 1   
    18     6    55 1   
    19     6    62 1   
    20     7     8 1   
    21     7    40 1   
    22     7    56 2   
    23     8     9 1   
    24     8    43 1   
    25     8    63 1   
    26     9    10 2   
    27     9    12 1   
    28    10    11 1   
    29    10    17 1   
    30    11    16 1   
    31    11    44 1   
    32    11    64 1   
    33    12    13 1   
    34    12    14 1   
    35    12    15 1   
    36    13    65 1   
    37    13    66 1   
    38    13    67 1   
    39    14    68 1   
    40    14    69 1   
    41    14    70 1   
    42    15    16 1   
    43    15    42 1   
    44    16    71 1   
    45    16    72 1   
    46    17    73 1   
    47    17    74 1   
    48    17    75 1   
    49    18    54 1   
    50    18    79 1   
    51    18    80 1   
    52    19    20 ar  
    53    19    24 ar  
    54    19   109 1   
    55    20    21 ar  
    56    20    81 1   
    57    21    22 ar  
    58    21    82 1   
    59    22    23 ar  
    60    22    83 1   
    61    23    24 ar  
    62    23    84 1   
    63    24    85 1   
    64    25    86 1   
    65    25    87 1   
    66    25    88 1   
    67    25   110 1   
    68    26    27 1   
    69    26    44 1   
    70    26    48 2   
    71    27    28 1   
    72    27    49 1   
    73    27    89 1   
    74    28    29 1   
    75    28    41 1   
    76    28    90 1   
    77    29    30 ar  
    78    29    34 ar  
    79    30    31 ar  
    80    30    91 1   
    81    31    32 ar  
    82    31    92 1   
    83    32    33 ar  
    84    32    93 1   
    85    33    34 ar  
    86    33    94 1   
    87    34    95 1   
    88    35    36 2   
    89    35    37 1   
    90    35   111 1   
    91    36    96 1   
    92    36    97 1   
    93    37    38 1   
    94    37    98 1   
    95    37    99 1   
    96    38    52 2   
    97    38    53 1   
    98    39    53 1   
    99    39   100 1   
   100    39   101 1   
   101    39   102 1   
   102    40   108 1   
   103    41   103 1   
   104    41   111 1   
   105    42   104 1   
   106    43   105 1   
   107    45   109 1   
   108    46   109 2   
   109    47   110 2   
   110    49   106 1   
   111    50   111 2   
   112    51   110 1   
   113    55   107 1   
   114    76   108 1   
   115    77   108 1   
   116    78   108 1   
@<TRIPOS>SUBSTRUCTURE
     1 R42         1 TEMP              0 ****  ****    0 ROOT
