@<TRIPOS>MOLECULE
R42
  111   116     1     0     0
SMALL
abcg2


@<TRIPOS>ATOM
      1 C2          -3.1700    62.0260    25.3600 c3         1 R42       0.167300
      2 C3          -3.4200    62.4040    26.8570 c6         1 R42      -0.048700
      3 C4          -2.5640    61.5270    27.8070 cy         1 R42       0.144000
      4 C5          -3.0320    61.2720    29.2650 cy         1 R42       0.150300
      5 C6          -4.3150    61.9110    29.7630 c6         1 R42      -0.107400
      6 C7          -4.8810    62.9490    28.8040 c6         1 R42       0.167300
      7 C9          -5.8380    63.4840    26.6330 c          1 R42       0.561100
      8 C10         -5.3650    64.9140    26.3300 c3         1 R42       0.121500
      9 C11         -4.1270    64.9640    25.4840 c2         1 R42      -0.100400
     10 C12         -3.0340    65.6240    25.9010 c2         1 R42      -0.111400
     11 C13         -1.7670    65.4040    25.1090 c6         1 R42       0.202500
     12 C15         -4.0640    64.1560    24.1830 c6         1 R42      -0.005800
     13 C16         -5.3240    63.3470    23.8220 c3         1 R42      -0.087600
     14 C17         -3.8980    65.1050    22.9710 c3         1 R42      -0.087600
     15 C1          -2.8510    63.1830    24.3420 c6         1 R42       0.199000
     16 C14         -1.5650    63.9270    24.7790 c6         1 R42      -0.114400
     17 C18         -2.9330    66.5180    27.1010 c3         1 R42      -0.053900
     18 C20         -2.5920    59.9990    27.6730 cy         1 R42       0.148600
     19 C22         -0.6820    59.4900    24.3530 ca         1 R42      -0.143600
     20 C23          0.4560    60.1090    24.8770 ca         1 R42      -0.048500
     21 C24          1.7110    59.5680    24.6350 ca         1 R42      -0.132500
     22 C25          1.8390    58.4130    23.8690 ca         1 R42      -0.086000
     23 C26          0.7070    57.7930    23.3470 ca         1 R42      -0.132500
     24 C27         -0.5500    58.3280    23.5900 ca         1 R42      -0.048500
     25 C29          0.6520    63.2450    28.4490 c3         1 R42      -0.164100
     26 C30          0.1400    66.8140    25.3680 c          1 R42       0.565100
     27 C31          1.3790    67.1010    26.2030 c3         1 R42       0.105300
     28 C32          2.2910    65.8590    26.2620 c3         1 R42       0.150000
     29 C33          3.5020    66.1140    27.1430 ca         1 R42      -0.091300
     30 C34          3.3300    66.1880    28.5260 ca         1 R42      -0.096000
     31 C35          4.4110    66.4350    29.3640 ca         1 R42      -0.105500
     32 C36          5.6840    66.6110    28.8280 ca         1 R42      -0.102000
     33 C37          5.8630    66.5380    27.4520 ca         1 R42      -0.105500
     34 C38          4.7780    66.2920    26.6140 ca         1 R42      -0.096000
     35 C40          3.0790    63.8540    23.1390 ce         1 R42      -0.163400
     36 C41          4.1790    64.4350    22.6690 c2         1 R42      -0.259000
     37 C42          2.3410    62.7770    22.3900 c3         1 R42      -0.088200
     38 C43          0.9410    63.1680    21.9700 c          1 R42       0.596100
     39 C44         -0.3940    64.8820    21.0140 c3         1 R42       0.147900
     40 C8          -4.9270    62.4420    27.3230 c6         1 R42      -0.111000
     41 N32          2.6300    65.4390    24.9170 ns         1 R42      -0.502900
     42 O1          -2.6680    62.5290    23.0890 oh         1 R42      -0.674000
     43 O10         -6.4320    65.6480    25.7480 oh         1 R42      -0.652000
     44 O13         -0.5950    65.8290    25.8690 os         1 R42      -0.434100
     45 O2          -2.0000    61.1840    25.2800 os         1 R42      -0.458100
     46 O21         -3.0630    59.5400    24.1560 o          1 R42      -0.479000
     47 O28         -1.6270    63.7690    29.0350 o          1 R42      -0.506000
     48 O30         -0.1080    67.4410    24.3610 o          1 R42      -0.494000
     49 O31          2.0690    68.2030    25.6540 oh         1 R42      -0.649000
     50 O39          2.0880    63.2540    25.2130 o          1 R42      -0.612100
     51 O4          -1.1870    61.9660    27.7620 os         1 R42      -0.435100
     52 O43         -0.0160    62.4200    22.0180 o          1 R42      -0.500000
     53 O44          0.8800    64.4150    21.5140 os         1 R42      -0.446100
     54 O5          -3.1600    59.8460    28.9950 oq         1 R42      -0.456000
     55 O7          -6.2000    63.3200    29.2040 oh         1 R42      -0.662000
     56 O9          -7.0080    63.2350    26.4340 o          1 R42      -0.511100
     57 H1          -3.9980    61.4460    24.9720 h1         1 R42       0.093700
     58 H2          -3.0430    63.4070    27.0150 hc         1 R42       0.080700
     59 H3          -2.2130    61.4320    29.9640 h1         1 R42       0.071700
     60 H4          -4.1440    62.3980    30.7250 hc         1 R42       0.067700
     61 H5          -5.0580    61.1290    29.9190 hc         1 R42       0.067700
     62 H6          -4.2400    63.8330    28.8210 h1         1 R42       0.052700
     63 H7          -5.1420    65.3290    27.3170 h1         1 R42       0.068700
     64 H10         -1.7630    66.0100    24.2120 h1         1 R42       0.086700
     65 H11         -5.5730    62.5520    24.5130 hc         1 R42       0.046033
     66 H12         -6.1880    64.0040    23.7410 hc         1 R42       0.046033
     67 H13         -5.1590    62.8800    22.8530 hc         1 R42       0.046033
     68 H14         -3.0630    65.7930    23.0300 hc         1 R42       0.046033
     69 H15         -3.7860    64.5220    22.0580 hc         1 R42       0.046033
     70 H16         -4.8050    65.7050    22.8870 hc         1 R42       0.046033
     71 H17         -1.1370    63.4500    25.6570 hc         1 R42       0.070700
     72 H18         -0.8100    63.8460    24.0030 hc         1 R42       0.070700
     73 H19         -2.4220    67.4450    26.8280 hc         1 R42       0.052367
     74 H20         -3.9050    66.7840    27.5060 hc         1 R42       0.052367
     75 H21         -2.3410    66.0510    27.8910 hc         1 R42       0.052367
     76 H22         -5.0890    60.3100    27.7510 hc         1 R42       0.058033
     77 H23         -6.6270    61.1490    27.6550 hc         1 R42       0.058033
     78 H24         -5.7470    60.7770    26.1830 hc         1 R42       0.058033
     79 H25         -3.2470    59.5820    26.9110 h1         1 R42       0.076200
     80 H26         -1.5970    59.5620    27.5960 h1         1 R42       0.076200
     81 H27          0.3590    61.0110    25.4610 ha         1 R42       0.139500
     82 H28          2.5900    60.0560    25.0370 ha         1 R42       0.118500
     83 H29          2.8200    57.9970    23.6770 ha         1 R42       0.111000
     84 H30          0.8050    56.8960    22.7500 ha         1 R42       0.118500
     85 H31         -1.4370    57.8580    23.1860 ha         1 R42       0.139500
     86 H32          0.8990    64.2240    28.8490 hc         1 R42       0.078367
     87 H33          1.1040    62.4740    29.0780 hc         1 R42       0.078367
     88 H34          1.0500    63.1270    27.4410 hc         1 R42       0.078367
     89 H35          1.0550    67.3320    27.2210 h1         1 R42       0.092700
     90 H36          1.7070    65.0540    26.6980 h1         1 R42       0.098700
     91 H37          2.3440    66.0510    28.9530 ha         1 R42       0.107500
     92 H38          4.2590    66.4850    30.4350 ha         1 R42       0.115000
     93 H39          6.5280    66.8010    29.4790 ha         1 R42       0.116000
     94 H40          6.8490    66.6730    27.0240 ha         1 R42       0.115000
     95 H41          4.9360    66.2360    25.5460 ha         1 R42       0.107500
     96 H42          4.7290    65.1740    23.2370 ha         1 R42       0.176000
     97 H43          4.5770    64.1650    21.6980 ha         1 R42       0.176000
     98 H44          2.2530    61.8760    22.9930 hc         1 R42       0.093700
     99 H45          2.8870    62.5270    21.4770 hc         1 R42       0.093700
    100 H46         -0.1990    65.8740    20.6180 h1         1 R42       0.055700
    101 H47         -0.7550    64.2170    20.2320 h1         1 R42       0.055700
    102 H48         -1.1170    64.9320    21.8230 h1         1 R42       0.055700
    103 H49          2.9750    66.1330    24.2710 hn         1 R42       0.329500
    104 H50         -1.7400    62.5520    22.8090 ho         1 R42       0.480000
    105 H51         -7.2090    65.0620    25.7900 ho         1 R42       0.469000
    106 H52          1.5870    68.4700    24.8540 ho         1 R42       0.473000
    107 H53         -6.1480    63.6830    30.0970 ho         1 R42       0.450000
    108 C19         -5.6320    61.0840    27.2220 c3         1 R42      -0.094100
    109 C21         -2.0410    60.0510    24.5610 c          1 R42       0.616700
    110 C28         -0.8310    63.0590    28.4610 c          1 R42       0.597100
    111 C39          2.5540    64.1530    24.5120 c          1 R42       0.602300
@<TRIPOS>BOND
     1     1     2 1   
     2     1    15 1   
     3     1    45 1   
     4     1    57 1   
     5     2     3 1   
     6     2    40 1   
     7     2    58 1   
     8     3     4 1   
     9     3    18 1   
    10     3    51 1   
    11     4     5 1   
    12     4    54 1   
    13     4    59 1   
    14     5     6 1   
    15     5    60 1   
    16     5    61 1   
    17     6    40 1   
    18     6    55 1   
    19     6    62 1   
    20     7     8 1   
    21     7    40 1   
    22     7    56 2   
    23     8     9 1   
    24     8    43 1   
    25     8    63 1   
    26     9    10 2   
    27     9    12 1   
    28    10    11 1   
    29    10    17 1   
    30    11    16 1   
    31    11    44 1   
    32    11    64 1   
    33    12    13 1   
    34    12    14 1   
    35    12    15 1   
    36    13    65 1   
    37    13    66 1   
    38    13    67 1   
    39    14    68 1   
    40    14    69 1   
    41    14    70 1   
    42    15    16 1   
    43    15    42 1   
    44    16    71 1   
    45    16    72 1   
    46    17    73 1   
    47    17    74 1   
    48    17    75 1   
    49    18    54 1   
    50    18    79 1   
    51    18    80 1   
    52    19    20 ar  
    53    19    24 ar  
    54    19   109 1   
    55    20    21 ar  
    56    20    81 1   
    57    21    22 ar  
    58    21    82 1   
    59    22    23 ar  
    60    22    83 1   
    61    23    24 ar  
    62    23    84 1   
    63    24    85 1   
    64    25    86 1   
    65    25    87 1   
    66    25    88 1   
    67    25   110 1   
    68    26    27 1   
    69    26    44 1   
    70    26    48 2   
    71    27    28 1   
    72    27    49 1   
    73    27    89 1   
    74    28    29 1   
    75    28    41 1   
    76    28    90 1   
    77    29    30 ar  
    78    29    34 ar  
    79    30    31 ar  
    80    30    91 1   
    81    31    32 ar  
    82    31    92 1   
    83    32    33 ar  
    84    32    93 1   
    85    33    34 ar  
    86    33    94 1   
    87    34    95 1   
    88    35    36 2   
    89    35    37 1   
    90    35   111 1   
    91    36    96 1   
    92    36    97 1   
    93    37    38 1   
    94    37    98 1   
    95    37    99 1   
    96    38    52 2   
    97    38    53 1   
    98    39    53 1   
    99    39   100 1   
   100    39   101 1   
   101    39   102 1   
   102    40   108 1   
   103    41   103 1   
   104    41   111 1   
   105    42   104 1   
   106    43   105 1   
   107    45   109 1   
   108    46   109 2   
   109    47   110 2   
   110    49   106 1   
   111    50   111 2   
   112    51   110 1   
   113    55   107 1   
   114    76   108 1   
   115    77   108 1   
   116    78   108 1   
@<TRIPOS>SUBSTRUCTURE
     1 R42         1 TEMP              0 ****  ****    0 ROOT
