@<TRIPOS>MOLECULE
R43
   53    57     1     0     0
SMALL
No Charge or Current Charge


@<TRIPOS>ATOM
      1 N1         -20.2370     5.1730    27.5600 ns         1 R43      -0.163000
      2 N3         -20.2780     8.7490    30.3530 nq         1 R43      -0.750500
      3 C4         -21.7590     6.2300    30.9940 c6         1 R43       0.272100
      4 C5         -22.6980     6.0840    28.7390 c6         1 R43       0.237800
      5 C6         -22.4280     4.5610    28.6200 c6         1 R43      -0.102400
      6 C7         -21.1950     4.1900    27.7640 c          1 R43       0.604100
      7 C8         -18.9400     5.0810    26.9760 ca         1 R43      -0.089000
      8 C10        -16.3730     4.8270    25.9780 ca         1 R43       0.349900
      9 C13        -17.0790     8.3720    25.0680 ca         1 R43      -0.111000
     10 C15        -19.0270     7.4230    26.1790 ca         1 R43      -0.111000
     11 C17        -22.2340     3.9170    30.0000 ca         1 R43      -0.052300
     12 C20        -18.3070     9.3270    30.5740 cy         1 R43      -0.031600
     13 C21        -19.0150     8.1120    29.8890 cy         1 R43       0.205300
     14 C22        -17.9770     9.1790    31.9970 c1         1 R43       0.309900
     15 N4         -17.6740     9.0750    33.1180 n1         1 R43      -0.438000
     16 C19        -19.6350    10.0840    30.2320 cy         1 R43       0.205300
     17 O1         -22.8610     8.9250    30.3220 o          1 R43      -0.575000
     18 O2         -21.5260     8.8480    28.1320 o          1 R43      -0.575000
     19 N          -21.6970     6.7440    29.6020 n3         1 R43      -0.806500
     20 C3         -21.8770     4.7080    31.1140 ca         1 R43      -0.063300
     21 C2         -21.6700     4.0970    32.3670 ca         1 R43      -0.099000
     22 C1         -21.8140     2.7070    32.5120 ca         1 R43      -0.088000
     23 C18        -22.3820     2.5230    30.1550 ca         1 R43      -0.084000
     24 C          -22.1720     1.9220    31.4060 ca         1 R43       0.127000
     25 Cl         -22.3550     0.1820    31.5860 cl         1 R43      -0.206000
     26 O          -21.0950     3.0720    27.2680 o          1 R43      -0.557100
     27 C16        -18.3480     6.1970    26.3420 ca         1 R43      -0.038000
     28 C14        -18.3910     8.5070    25.5500 ca         1 R43      -0.082000
     29 C12        -16.4020     7.1490    25.2070 ca         1 R43      -0.083000
     30 C11        -17.0360     6.0620    25.8400 ca         1 R43      -0.092000
     31 N2         -16.9320     3.7510    26.5760 nb         1 R43      -0.644000
     32 C9         -18.1880     3.8840    27.0620 ca         1 R43       0.328900
     33 H1         -20.4550     6.0680    27.9810 hn         1 R43       0.155000
     34 H2         -20.8720     6.5460    31.5610 h1         1 R43       0.071200
     35 H3         -22.6270     6.6560    31.5180 h1         1 R43       0.071200
     36 H4         -22.7010     6.5180    27.7280 h1         1 R43       0.067200
     37 H5         -23.7080     6.2380    29.1490 h1         1 R43       0.067200
     38 H6         -23.2910     4.0740    28.1480 hc         1 R43       0.075700
     39 H7         -15.3600     4.6920    25.5970 h4         1 R43       0.024100
     40 H8         -16.5900     9.2120    24.5790 ha         1 R43       0.120000
     41 H9         -20.0470     7.5440    26.5270 ha         1 R43       0.124000
     42 H10        -17.4130     9.6950    30.0650 hc         1 R43       0.092700
     43 H11        -18.7850     7.1270    30.3120 h1         1 R43       0.082200
     44 H12        -18.8750     8.0890    28.8010 h1         1 R43       0.082200
     45 H13        -19.6370    10.5180    29.2230 h1         1 R43       0.082200
     46 H14        -19.9480    10.8400    30.9630 h1         1 R43       0.082200
     47 H15        -21.4030     4.7020    33.2320 ha         1 R43       0.123000
     48 H16        -21.6540     2.2390    33.4810 ha         1 R43       0.134000
     49 H17        -22.6540     1.9020    29.3060 ha         1 R43       0.129000
     50 H18        -18.9200     9.4510    25.4320 ha         1 R43       0.124000
     51 H19        -15.3880     7.0480    24.8230 ha         1 R43       0.120000
     52 H20        -18.5870     3.0050    27.5660 h4         1 R43       0.041100
     53 S          -21.7320     8.4480    29.5230 s6         1 R43       1.332200
@<TRIPOS>BOND
     1     1     6 1   
     2     1     7 1   
     3     1    33 1   
     4     2    13 1   
     5     2    16 1   
     6     2    53 1   
     7     3    19 1   
     8     3    20 1   
     9     3    34 1   
    10     3    35 1   
    11     4     5 1   
    12     4    19 1   
    13     4    36 1   
    14     4    37 1   
    15     5     6 1   
    16     5    11 1   
    17     5    38 1   
    18     6    26 2   
    19     7    27 ar  
    20     7    32 ar  
    21     8    30 ar  
    22     8    31 ar  
    23     8    39 1   
    24     9    28 ar  
    25     9    29 ar  
    26     9    40 1   
    27    10    27 ar  
    28    10    28 ar  
    29    10    41 1   
    30    11    20 ar  
    31    11    23 ar  
    32    12    13 1   
    33    12    14 1   
    34    12    16 1   
    35    12    42 1   
    36    13    43 1   
    37    13    44 1   
    38    14    15 3   
    39    16    45 1   
    40    16    46 1   
    41    17    53 2   
    42    18    53 2   
    43    19    53 1   
    44    20    21 ar  
    45    21    22 ar  
    46    21    47 1   
    47    22    24 ar  
    48    22    48 1   
    49    23    24 ar  
    50    23    49 1   
    51    24    25 1   
    52    27    30 ar  
    53    28    50 1   
    54    29    30 ar  
    55    29    51 1   
    56    31    32 ar  
    57    32    52 1   
@<TRIPOS>SUBSTRUCTURE
     1 R43         1 TEMP              0 ****  ****    0 ROOT
