@<TRIPOS>MOLECULE
R43
   53    57     1     0     0
SMALL
abcg2


@<TRIPOS>ATOM
      1 N1         -20.0250     4.9390    27.3430 ns         1 R43      -0.163000
      2 N3         -19.9280     8.2150    30.3730 nq         1 R43      -0.750500
      3 C4         -22.3250     6.3000    31.2010 c6         1 R43       0.272100
      4 C5         -22.4890     6.0420    28.7290 c6         1 R43       0.237800
      5 C6         -21.9470     4.6090    28.7950 c6         1 R43      -0.102400
      6 C7         -20.4220     4.6080    28.6030 c          1 R43       0.604100
      7 C8         -18.6940     5.1850    26.9440 ca         1 R43      -0.089000
      8 C10        -16.0840     5.5930    26.2320 ca         1 R43       0.349900
      9 C13        -17.6270     8.6080    24.6970 ca         1 R43      -0.111000
     10 C15        -19.3550     7.3220    25.8080 ca         1 R43      -0.111000
     11 C17        -22.3120     3.9920    30.1200 ca         1 R43      -0.052300
     12 C20        -17.8780     8.7380    30.1700 cy         1 R43      -0.031600
     13 C21        -18.8050     7.6380    29.5850 cy         1 R43       0.205300
     14 C22        -16.9860     8.2740    31.2140 c1         1 R43       0.309900
     15 N4         -16.2780     7.8980    32.0400 n1         1 R43      -0.438000
     16 C19        -19.1600     9.4550    30.6800 cy         1 R43       0.205300
     17 O1         -22.1540     9.1960    30.6290 o          1 R43      -0.575000
     18 O2         -21.4140     8.6410    28.3310 o          1 R43      -0.575000
     19 N          -21.9440     6.7790    29.8680 n3         1 R43      -0.806500
     20 C3         -22.4700     4.7970    31.2470 ca         1 R43      -0.063300
     21 C2         -22.7960     4.2060    32.4680 ca         1 R43      -0.099000
     22 C1         -22.9590     2.8340    32.5810 ca         1 R43      -0.088000
     23 C18        -22.4790     2.6110    30.2230 ca         1 R43      -0.084000
     24 C          -22.7970     2.0490    31.4460 ca         1 R43       0.127000
     25 CL         -23.0060     0.3120    31.5660 cl         1 R43      -0.206000
     26 O          -19.6450     4.3680    29.5130 o          1 R43      -0.557100
     27 C16        -18.3990     6.3490    26.1810 ca         1 R43      -0.038000
     28 C14        -18.9720     8.4240    25.0830 ca         1 R43      -0.082000
     29 C12        -16.6770     7.6880    25.0570 ca         1 R43      -0.083000
     30 C11        -17.0400     6.5460    25.8090 ca         1 R43      -0.092000
     31 N2         -16.3800     4.5300    26.9440 nb         1 R43      -0.644000
     32 C9         -17.6760     4.3290    27.2880 ca         1 R43       0.328900
     33 H1         -20.7480     5.1430    26.6700 hn         1 R43       0.155000
     34 H2         -21.5580     6.6130    31.9100 h1         1 R43       0.071200
     35 H3         -23.2680     6.7610    31.5110 h1         1 R43       0.071200
     36 H4         -22.1970     6.5440    27.8140 h1         1 R43       0.067200
     37 H5         -23.5810     6.0180    28.7770 h1         1 R43       0.067200
     38 H6         -22.3950     4.0360    27.9800 hc         1 R43       0.075700
     39 H7         -15.0420     5.7370    25.9590 h4         1 R43       0.024100
     40 H8         -17.3490     9.4840    24.1250 ha         1 R43       0.120000
     41 H9         -20.3860     7.2200    26.1150 ha         1 R43       0.124000
     42 H10        -17.3060     9.2940    29.4310 hc         1 R43       0.092700
     43 H11        -18.5820     6.6060    29.8320 h1         1 R43       0.082200
     44 H12        -18.9350     7.7610    28.5120 h1         1 R43       0.082200
     45 H13        -19.4240    10.3020    30.0470 h1         1 R43       0.082200
     46 H14        -19.1890     9.7350    31.7290 h1         1 R43       0.082200
     47 H15        -22.9230     4.8290    33.3460 ha         1 R43       0.123000
     48 H16        -23.2090     2.3830    33.5310 ha         1 R43       0.134000
     49 H17        -22.3580     1.9860    29.3490 ha         1 R43       0.129000
     50 H18        -19.7100     9.1670    24.8100 ha         1 R43       0.124000
     51 H19        -15.6390     7.8210    24.7800 ha         1 R43       0.120000
     52 H20        -17.8890     3.4400    27.8650 h4         1 R43       0.041100
     53 S          -21.4390     8.3140    29.7370 s6         1 R43       1.332200
@<TRIPOS>BOND
     1     1     6 1   
     2     1     7 1   
     3     1    33 1   
     4     2    13 1   
     5     2    16 1   
     6     2    53 1   
     7     3    19 1   
     8     3    20 1   
     9     3    34 1   
    10     3    35 1   
    11     4     5 1   
    12     4    19 1   
    13     4    36 1   
    14     4    37 1   
    15     5     6 1   
    16     5    11 1   
    17     5    38 1   
    18     6    26 2   
    19     7    27 ar  
    20     7    32 ar  
    21     8    30 ar  
    22     8    31 ar  
    23     8    39 1   
    24     9    28 ar  
    25     9    29 ar  
    26     9    40 1   
    27    10    27 ar  
    28    10    28 ar  
    29    10    41 1   
    30    11    20 ar  
    31    11    23 ar  
    32    12    13 1   
    33    12    14 1   
    34    12    16 1   
    35    12    42 1   
    36    13    43 1   
    37    13    44 1   
    38    14    15 3   
    39    16    45 1   
    40    16    46 1   
    41    17    53 2   
    42    18    53 2   
    43    19    53 1   
    44    20    21 ar  
    45    21    22 ar  
    46    21    47 1   
    47    22    24 ar  
    48    22    48 1   
    49    23    24 ar  
    50    23    49 1   
    51    24    25 1   
    52    27    30 ar  
    53    28    50 1   
    54    29    30 ar  
    55    29    51 1   
    56    31    32 ar  
    57    32    52 1   
@<TRIPOS>SUBSTRUCTURE
     1 R43         1 TEMP              0 ****  ****    0 ROOT
