@<TRIPOS>MOLECULE
R44
   58    63     1     0     0
SMALL
No Charge or Current Charge


@<TRIPOS>ATOM
      1 C2          26.6660    -2.0140    27.3820 ca         1 R44       0.089000
      2 C3          26.7170    -1.3600    26.1320 ca         1 R44      -0.037000
      3 C4          26.3460    -0.0080    26.0730 ca         1 R44      -0.142300
      4 C5          25.9270     0.6500    27.2030 ca         1 R44       0.129100
      5 C6          25.8900     0.0520    28.4750 cp         1 R44      -0.073000
      6 C7          26.2690    -1.3140    28.5440 ca         1 R44      -0.054000
      7 C8          25.5500     0.8510    29.6820 cp         1 R44       0.043000
      8 C12         26.1830     1.9670    31.7550 ca         1 R44       0.356800
      9 C16         26.4840     1.1650    30.6860 ca         1 R44      -0.221000
     10 C19         31.0370     3.5930    32.1440 c          1 R44       0.567000
     11 O20         30.2370     4.3760    32.6320 o          1 R44      -0.495000
     12 C21         32.3340     3.8640    31.3680 c5         1 R44      -0.168400
     13 C23         31.6400     1.5750    31.0570 c          1 R44       0.567000
     14 O25         25.6300     1.9640    26.9940 os         1 R44      -0.325100
     15 C32         29.1520     3.9810    27.8190 c6         1 R44       0.098000
     16 C33         29.0520     4.6000    29.2430 c6         1 R44       0.135800
     17 C35         26.7680     5.3320    28.8170 c6         1 R44       0.135800
     18 C36         26.8130     4.7460    27.3770 c6         1 R44       0.098000
     19 Cl1         27.1360    -3.7050    27.5010 cl         1 R44      -0.195000
     20 C9          24.2750     1.4330    29.8760 ca         1 R44      -0.136000
     21 C10         24.0300     2.2380    31.0130 ca         1 R44       0.333900
     22 N11         24.9720     2.5140    31.9530 nb         1 R44      -0.632000
     23 C13         27.3190     2.1780    32.6090 cc         1 R44      -0.263800
     24 C14         28.4510     1.5240    32.1320 cd         1 R44      -0.091600
     25 S15         28.1680     0.6250    30.6050 ss         1 R44       0.134400
     26 N18         30.8360     2.2300    31.9800 n          1 R44      -0.392400
     27 C22         32.3410     2.7180    30.3100 c5         1 R44      -0.168400
     28 C26         26.3410     2.2830    25.7450 c5         1 R44       0.077300
     29 C28         26.3880     0.9360    24.9070 c5         1 R44      -0.038100
     30 C29         27.7990     2.7860    26.0770 c          1 R44       0.589100
     31 O30         28.8330     2.4110    25.5320 o          1 R44      -0.595100
     32 N31         27.8310     3.6560    27.1980 n          1 R44      -0.398800
     33 N34         28.1100     5.7410    29.2930 n7         1 R44      -0.863400
     34 H1          27.0530    -1.8880    25.2430 ha         1 R44       0.138000
     35 H2          26.2630    -1.8260    29.5030 ha         1 R44       0.140000
     36 H5          33.1700     3.7050    32.0600 hc         1 R44       0.088950
     37 H6          29.7640     3.0690    27.8780 h1         1 R44       0.060950
     38 H7          29.6830     4.6860    27.1630 h1         1 R44       0.060950
     39 H8          28.7170     3.8220    29.9460 h1         1 R44       0.042700
     40 H9          30.0490     4.9320    29.5690 h1         1 R44       0.042700
     41 H10         26.0880     6.1960    28.8400 h1         1 R44       0.042700
     42 H11         26.3570     4.5700    29.4980 h1         1 R44       0.042700
     43 H12         27.0540     5.5600    26.6790 h1         1 R44       0.060950
     44 H13         25.8020     4.4030    27.1230 h1         1 R44       0.060950
     45 H14         23.4830     1.2710    29.1510 ha         1 R44       0.131000
     46 H15         23.0490     2.6870    31.1670 h4         1 R44       0.023100
     47 H16         27.2980     2.7770    33.5130 ha         1 R44       0.223000
     48 H17         33.3220     2.4150    29.9280 hc         1 R44       0.088950
     49 H18         25.8200     3.0900    25.2150 h1         1 R44       0.092700
     50 H19         25.5070     0.8300    24.2640 hc         1 R44       0.082200
     51 H20         27.2770     0.8280    24.2760 hc         1 R44       0.082200
     52 H21         28.0350     6.0690    30.2650 hn         1 R44       0.424000
     53 H22         32.3740     4.8870    30.9800 hc         1 R44       0.088950
     54 H23         31.7000     3.0080    29.4720 hc         1 R44       0.088950
     55 C17         29.8170     1.5080    32.7660 c3         1 R44       0.168200
     56 O24         31.8520     0.3730    31.0240 o          1 R44      -0.495000
     57 H3          29.7530     1.9570    33.7660 h1         1 R44       0.079700
     58 H4          30.1300     0.4650    32.9080 h1         1 R44       0.079700
@<TRIPOS>BOND
     1     1     2 ar  
     2     1     6 ar  
     3     1    19 1   
     4     2     3 ar  
     5     2    34 1   
     6     3     4 ar  
     7     3    29 1   
     8     4     5 ar  
     9     4    14 1   
    10     5     6 ar  
    11     5     7 1   
    12     6    35 1   
    13     7     9 ar  
    14     7    20 ar  
    15     8     9 ar  
    16     8    22 ar  
    17     8    23 1   
    18     9    25 1   
    19    10    11 2   
    20    10    12 1   
    21    10    26 1   
    22    12    27 1   
    23    12    36 1   
    24    12    53 1   
    25    13    26 1   
    26    13    27 1   
    27    13    56 2   
    28    14    28 1   
    29    15    16 1   
    30    15    32 1   
    31    15    37 1   
    32    15    38 1   
    33    16    33 1   
    34    16    39 1   
    35    16    40 1   
    36    17    18 1   
    37    17    33 1   
    38    17    41 1   
    39    17    42 1   
    40    18    32 1   
    41    18    43 1   
    42    18    44 1   
    43    20    21 ar  
    44    20    45 1   
    45    21    22 ar  
    46    21    46 1   
    47    23    24 2   
    48    23    47 1   
    49    24    25 1   
    50    24    55 1   
    51    26    55 1   
    52    27    48 1   
    53    27    54 1   
    54    28    29 1   
    55    28    30 1   
    56    28    49 1   
    57    29    50 1   
    58    29    51 1   
    59    30    31 2   
    60    30    32 1   
    61    33    52 1   
    62    55    57 1   
    63    55    58 1   
@<TRIPOS>SUBSTRUCTURE
     1 R44         1 TEMP              0 ****  ****    0 ROOT
