@<TRIPOS>MOLECULE
R44
   58    63     1     0     0
SMALL
bcc


@<TRIPOS>ATOM
      1 C2          26.5020    -1.9610    27.4950 ca         1 R44      -0.002600
      2 C3          26.6790    -1.3530    26.2530 ca         1 R44      -0.055000
      3 C4          26.4300    -0.0010    26.1590 ca         1 R44      -0.142300
      4 C5          25.9990     0.7060    27.2720 ca         1 R44       0.129100
      5 C6          25.8410     0.1220    28.5150 cp         1 R44      -0.073000
      6 C7          26.1020    -1.2470    28.6120 ca         1 R44      -0.072000
      7 C8          25.5150     0.9540    29.6880 cp         1 R44       0.043000
      8 C12         26.2050     2.0970    31.7150 ca         1 R44       0.422100
      9 C16         26.4860     1.2290    30.6450 ca         1 R44      -0.159400
     10 C19         31.1010     3.6010    32.2680 c          1 R44       0.709500
     11 O20         30.5730     4.2830    33.1090 o          1 R44      -0.570500
     12 C21         32.2210     3.9800    31.3330 c5         1 R44      -0.168400
     13 C23         31.4540     1.7350    30.9550 c          1 R44       0.709500
     14 O25         25.8000     2.0140    27.0160 os         1 R44      -0.301900
     15 C32         29.2120     4.3380    27.5050 c6         1 R44       0.098000
     16 C33         29.1080     4.2950    29.0220 c6         1 R44       0.135800
     17 C35         26.7470     4.6940    28.8990 c6         1 R44       0.135800
     18 C36         26.8350     4.7320    27.3820 c6         1 R44       0.098000
     19 CL1         26.8090    -3.6620    27.6490 cl         1 R44      -0.103400
     20 C9          24.2870     1.5650    29.8740 ca         1 R44      -0.219300
     21 C10         24.0900     2.4030    30.9770 ca         1 R44       0.399200
     22 N11         25.0140     2.6760    31.8780 nb         1 R44      -0.632000
     23 C13         27.3490     2.2850    32.5580 cc         1 R44      -0.213800
     24 C14         28.4270     1.5900    32.1330 cd         1 R44      -0.091600
     25 S15         28.1210     0.6720    30.6820 ss         1 R44       0.007500
     26 N18         30.7690     2.2840    32.0170 n          1 R44      -0.526400
     27 C22         32.3740     2.7880    30.3960 c5         1 R44      -0.168400
     28 C26         26.4790     2.3050    25.7780 c5         1 R44       0.054100
     29 C28         26.5220     0.9720    25.0210 c5         1 R44      -0.038100
     30 C29         27.8830     2.8180    26.1460 c          1 R44       0.656100
     31 O30         28.8750     2.2170    25.7610 o          1 R44      -0.595100
     32 N31         27.9480     3.9140    26.9220 n          1 R44      -0.465800
     33 N34         28.0110     5.1340    29.4640 n7         1 R44      -0.808200
     34 H1          27.0100    -1.9250    25.3960 ha         1 R44       0.156000
     35 H2          25.9930    -1.7460    29.5660 ha         1 R44       0.158000
     36 H5          33.1190     4.1540    31.9280 hc         1 R44       0.088950
     37 H6          30.0150     3.6940    27.1580 h1         1 R44       0.060950
     38 H7          29.4300     5.3580    27.1780 h1         1 R44       0.060950
     39 H8          28.9990     3.2420    29.3340 h1         1 R44       0.042700
     40 H9          30.0400     4.6730    29.4470 h1         1 R44       0.042700
     41 H10         25.9540     5.3700    29.2240 h1         1 R44       0.042700
     42 H11         26.4670     3.6790    29.2120 h1         1 R44       0.042700
     43 H12         27.0170     5.7600    27.0540 h1         1 R44       0.060950
     44 H13         25.8930     4.4230    26.9410 h1         1 R44       0.060950
     45 H14         23.4790     1.4040    29.1740 ha         1 R44       0.149000
     46 H15         23.1240     2.8760    31.1150 h4         1 R44       0.023100
     47 H16         27.3490     2.9130    33.4380 ha         1 R44       0.173000
     48 H17         33.3920     2.4020    30.3460 hc         1 R44       0.088950
     49 H18         25.9050     3.0660    25.2470 h1         1 R44       0.092700
     50 H19         25.6560     0.8800    24.3610 hc         1 R44       0.082200
     51 H20         27.4180     0.8620    24.4160 hc         1 R44       0.082200
     52 H21         27.9550     5.1210    30.4740 hn         1 R44       0.368800
     53 H22         31.9890     4.9160    30.8260 hc         1 R44       0.088950
     54 H23         32.0690     3.0130    29.3720 hc         1 R44       0.088950
     55 C17         29.7760     1.5510    32.7750 c3         1 R44       0.168200
     56 O24         31.2910     0.6040    30.5670 o          1 R44      -0.570500
     57 H3          29.7120     1.9900    33.7680 h1         1 R44       0.079700
     58 H4          30.1240     0.5240    32.8960 h1         1 R44       0.079700
@<TRIPOS>BOND
     1     1     2 ar  
     2     1     6 ar  
     3     1    19 1   
     4     2     3 ar  
     5     2    34 1   
     6     3     4 ar  
     7     3    29 1   
     8     4     5 ar  
     9     4    14 1   
    10     5     6 ar  
    11     5     7 1   
    12     6    35 1   
    13     7     9 ar  
    14     7    20 ar  
    15     8     9 ar  
    16     8    22 ar  
    17     8    23 1   
    18     9    25 1   
    19    10    11 2   
    20    10    12 1   
    21    10    26 1   
    22    12    27 1   
    23    12    36 1   
    24    12    53 1   
    25    13    26 1   
    26    13    27 1   
    27    13    56 2   
    28    14    28 1   
    29    15    16 1   
    30    15    32 1   
    31    15    37 1   
    32    15    38 1   
    33    16    33 1   
    34    16    39 1   
    35    16    40 1   
    36    17    18 1   
    37    17    33 1   
    38    17    41 1   
    39    17    42 1   
    40    18    32 1   
    41    18    43 1   
    42    18    44 1   
    43    20    21 ar  
    44    20    45 1   
    45    21    22 ar  
    46    21    46 1   
    47    23    24 2   
    48    23    47 1   
    49    24    25 1   
    50    24    55 1   
    51    26    55 1   
    52    27    48 1   
    53    27    54 1   
    54    28    29 1   
    55    28    30 1   
    56    28    49 1   
    57    29    50 1   
    58    29    51 1   
    59    30    31 2   
    60    30    32 1   
    61    33    52 1   
    62    55    57 1   
    63    55    58 1   
@<TRIPOS>SUBSTRUCTURE
     1 R44         1 TEMP              0 ****  ****    0 ROOT
