@<TRIPOS>MOLECULE
R45
   74    76     1     0     0
SMALL
bcc


@<TRIPOS>ATOM
      1 O4           9.4770    26.4040     4.4810 o          1 R45      -0.634100
      2 N1           6.3790    22.7730     5.5270 nc         1 R45      -0.411300
      3 O1           7.3390    22.8080     4.5650 os         1 R45      -0.130100
      4 C25          8.7920    26.6650     3.5030 c          1 R45       0.662100
      5 C17          8.4930    25.6470     2.4130 c3         1 R45      -0.093700
      6 C16          8.4480    24.2330     2.9830 c3         1 R45      -0.121700
      7 C14          6.4980    24.8290     4.6340 cd         1 R45      -0.389600
      8 C13          5.8700    23.9740     5.5790 cd         1 R45       0.400800
      9 C12          4.8180    24.3030     6.5470 ca         1 R45      -0.131500
     10 C11          4.5990    25.6310     6.9120 ca         1 R45      -0.099500
     11 C10          3.6410    25.9500     7.8640 ca         1 R45      -0.140000
     12 C7           2.8840    24.9470     8.4530 ca         1 R45      -0.134000
     13 C8           3.0900    23.6230     8.0860 ca         1 R45      -0.140000
     14 C9           4.0520    23.3000     7.1430 ca         1 R45      -0.099500
     15 C15          7.4190    24.0350     4.0360 cc         1 R45       0.320000
     16 C18          9.5700    25.7830     1.3230 c3         1 R45      -0.281600
     17 P1           9.1640    24.8880    -0.2400 p5         1 R45       1.138700
     18 O2           9.3240    23.3970    -0.0420 o          1 R45      -0.824500
     19 O3           7.8690    25.4530    -0.7750 o          1 R45      -0.824500
     20 C19         10.5370    25.4590    -1.3210 ca         1 R45      -0.232500
     21 C20         10.4310    26.6480    -2.0380 ca         1 R45      -0.065000
     22 C21         11.4580    27.0900    -2.8610 ca         1 R45      -0.142000
     23 C22         12.6080    26.3220    -2.9660 ca         1 R45      -0.007900
     24 BR1         14.0130    26.9030    -4.0900 br         1 R45      -0.181100
     25 C23         12.7450    25.1330    -2.2660 ca         1 R45      -0.142000
     26 C24         11.7050    24.7120    -1.4480 ca         1 R45      -0.065000
     27 N2           8.2800    27.8900     3.2870 ns         1 R45      -0.546900
     28 C26          8.4050    28.9560     4.2500 c3         1 R45       0.031700
     29 C30          7.4550    28.6980     5.4150 c          1 R45       0.645100
     30 O7           6.2920    28.3700     5.2230 o          1 R45      -0.632100
     31 C27          8.0560    30.3040     3.6190 c3         1 R45      -0.059400
     32 C28          9.0410    30.7340     2.5450 c3         1 R45      -0.210400
     33 C29          8.7410    32.0990     1.8870 c          1 R45       0.930600
     34 O6           9.5890    32.4970     1.0620 o          1 R45      -0.853300
     35 O5           7.6900    32.6830     2.2160 o          1 R45      -0.853300
     36 N3           7.9480    28.9080     6.6430 ns         1 R45      -0.569900
     37 C31          7.1250    28.7380     7.8200 c3         1 R45       0.020700
     38 C35          5.9350    29.6990     7.8160 c          1 R45       0.684100
     39 O10          4.8330    29.3500     8.2130 o          1 R45      -0.638100
     40 C32          7.9820    28.9250     9.0740 c3         1 R45      -0.060400
     41 C33          7.2250    28.6700    10.3650 c3         1 R45      -0.211400
     42 C34          8.0930    28.6500    11.6400 c          1 R45       0.930600
     43 O8           9.3190    28.8280    11.5120 o          1 R45      -0.855300
     44 O9           7.4720    28.4530    12.7040 o          1 R45      -0.855300
     45 N4           6.2100    30.9480     7.4170 nt         1 R45      -0.666000
     46 H1           7.5230    25.8860     1.9650 hc         1 R45       0.074700
     47 H2           8.2700    23.5270     2.1690 hc         1 R45       0.091700
     48 H3           9.4270    23.9740     3.3960 hc         1 R45       0.091700
     49 H4           6.2870    25.8670     4.4410 ha         1 R45       0.193000
     50 H5           5.1840    26.4250     6.4650 ha         1 R45       0.152500
     51 H6           3.5010    26.9840     8.1480 ha         1 R45       0.133500
     52 H7           2.1360    25.1950     9.1950 ha         1 R45       0.114000
     53 H8           2.4990    22.8370     8.5380 ha         1 R45       0.133500
     54 H9           4.2030    22.2660     6.8630 ha         1 R45       0.152500
     55 H10         10.5360    25.4470     1.7110 hc         1 R45       0.060200
     56 H11          9.6860    26.8400     1.0670 hc         1 R45       0.060200
     57 H13          9.5300    27.2460    -1.9650 ha         1 R45       0.151500
     58 H14         11.3530    28.0150    -3.4120 ha         1 R45       0.124500
     59 H15         13.6420    24.5330    -2.3520 ha         1 R45       0.124500
     60 H16         11.8100    23.7800    -0.9080 ha         1 R45       0.151500
     61 H17          7.6460    28.0260     2.5150 hn         1 R45       0.332500
     62 H18          9.4380    28.9880     4.6080 h1         1 R45       0.067700
     63 H19          8.0290    31.0500     4.4160 hc         1 R45       0.050700
     64 H20          7.0420    30.2530     3.2140 hc         1 R45       0.050700
     65 H21          9.0890    29.9820     1.7500 hc         1 R45       0.026200
     66 H22         10.0520    30.7660     2.9670 hc         1 R45       0.026200
     67 H24          8.9290    29.1130     6.7600 hn         1 R45       0.326500
     68 H25          6.7040    27.7280     7.8310 h1         1 R45       0.081700
     69 H26          8.8230    28.2300     9.0040 hc         1 R45       0.047200
     70 H27          8.4110    29.9310     9.0730 hc         1 R45       0.047200
     71 H28          6.4430    29.4210    10.5080 hc         1 R45       0.030200
     72 H29          6.6950    27.7130    10.2990 hc         1 R45       0.030200
     73 H31          5.4850    31.6470     7.3960 hn         1 R45       0.306500
     74 H32          7.1130    31.2070     7.0580 hn         1 R45       0.306500
@<TRIPOS>BOND
     1     1     4 2   
     2     2     3 1   
     3     2     8 2   
     4     3    15 1   
     5     4     5 1   
     6     4    27 1   
     7     5     6 1   
     8     5    16 1   
     9     5    46 1   
    10     6    15 1   
    11     6    47 1   
    12     6    48 1   
    13     7     8 1   
    14     7    15 2   
    15     7    49 1   
    16     8     9 1   
    17     9    10 ar  
    18     9    14 ar  
    19    10    11 ar  
    20    10    50 1   
    21    11    12 ar  
    22    11    51 1   
    23    12    13 ar  
    24    12    52 1   
    25    13    14 ar  
    26    13    53 1   
    27    14    54 1   
    28    16    17 1   
    29    16    55 1   
    30    16    56 1   
    31    17    18 1   
    32    17    19 1   
    33    17    20 1   
    34    20    21 ar  
    35    20    26 ar  
    36    21    22 ar  
    37    21    57 1   
    38    22    23 ar  
    39    22    58 1   
    40    23    24 1   
    41    23    25 ar  
    42    25    26 ar  
    43    25    59 1   
    44    26    60 1   
    45    27    28 1   
    46    27    61 1   
    47    28    29 1   
    48    28    31 1   
    49    28    62 1   
    50    29    30 2   
    51    29    36 1   
    52    31    32 1   
    53    31    63 1   
    54    31    64 1   
    55    32    33 1   
    56    32    65 1   
    57    32    66 1   
    58    33    34 1   
    59    33    35 1   
    60    36    37 1   
    61    36    67 1   
    62    37    38 1   
    63    37    40 1   
    64    37    68 1   
    65    38    39 2   
    66    38    45 1   
    67    40    41 1   
    68    40    69 1   
    69    40    70 1   
    70    41    42 1   
    71    41    71 1   
    72    41    72 1   
    73    42    43 1   
    74    42    44 1   
    75    45    73 1   
    76    45    74 1   
@<TRIPOS>SUBSTRUCTURE
     1 R45         1 TEMP              0 ****  ****    0 ROOT
