@<TRIPOS>MOLECULE
R45
   74    76     1     0     0
SMALL
No Charge or Current Charge


@<TRIPOS>ATOM
      1 O4          10.4020    26.3800     3.6770 o          1 R45      -0.634100
      2 N1           7.7550    23.6620     6.1910 nc         1 R45      -0.411300
      3 O1           8.5370    23.4600     4.9950 os         1 R45      -0.085700
      4 C25          9.2920    26.5270     3.1810 c          1 R45       0.595100
      5 C17          8.7370    25.6030     2.0620 c3         1 R45      -0.093700
      6 C16          8.5750    24.1530     2.6020 c3         1 R45      -0.121700
      7 C14          6.7770    24.6780     4.4240 cd         1 R45      -0.241000
      8 C13          6.7210    24.3940     5.8020 cd         1 R45       0.335500
      9 C12          5.6860    24.8530     6.7570 ca         1 R45      -0.131500
     10 C11          4.4900    25.4480     6.2940 ca         1 R45      -0.081500
     11 C10          3.5020    25.8730     7.2000 ca         1 R45      -0.122000
     12 C7           3.6910    25.7040     8.5800 ca         1 R45      -0.116000
     13 C8           4.8690    25.1080     9.0540 ca         1 R45      -0.122000
     14 C9           5.8590    24.6830     8.1520 ca         1 R45      -0.081500
     15 C15          7.9120    24.1010     3.9540 cc         1 R45       0.210300
     16 C18          9.5890    25.6770     0.7530 c3         1 R45      -0.439400
     17 P1           8.9000    24.9070    -0.7720 p5         1 R45       1.296500
     18 O2           9.0790    23.4240    -0.6820 o          1 R45      -0.824500
     19 O3           7.4730    25.3320    -0.9180 o          1 R45      -0.824500
     20 C19          9.9300    25.6030    -2.1150 ca         1 R45      -0.232500
     21 C20          9.5420    26.7940    -2.7640 ca         1 R45      -0.047000
     22 C21         10.3410    27.3320    -3.7880 ca         1 R45      -0.124000
     23 C22         11.5290    26.6860    -4.1650 ca         1 R45      -0.007900
     24 Br1         12.6130    27.4200    -5.5570 br         1 R45      -0.181100
     25 C23         11.9230    25.5020    -3.5210 ca         1 R45      -0.124000
     26 C24         11.1270    24.9610    -2.4970 ca         1 R45      -0.047000
     27 N2           8.4120    27.4950     3.6120 ns         1 R45      -0.479900
     28 C26          8.5930    28.3410     4.8110 c3         1 R45       0.031700
     29 C30          7.2550    28.3860     5.6040 c          1 R45       0.578100
     30 O7           6.1670    28.1540     5.0920 o          1 R45      -0.632100
     31 C27          9.0690    29.7700     4.4360 c3         1 R45      -0.059400
     32 C28         10.4460    29.8270     3.7230 c3         1 R45      -0.210400
     33 C29         10.8690    31.2890     3.5020 c          1 R45       0.720000
     34 O6          11.4980    31.8480     4.3870 o          1 R45      -0.748000
     35 O5          10.5110    31.8440     2.4740 o          1 R45      -0.748000
     36 N3           7.3730    28.7030     6.9420 ns         1 R45      -0.502900
     37 C31          6.2350    28.7440     7.8920 c3         1 R45       0.020700
     38 C35          5.3880    30.0390     7.6960 c          1 R45       0.617100
     39 O10          4.1690    30.0690     7.7810 o          1 R45      -0.638100
     40 C32          6.7760    28.6020     9.3390 c3         1 R45      -0.060400
     41 C33          5.6850    28.5940    10.4420 c3         1 R45      -0.211400
     42 C34          6.3220    28.3370    11.8180 c          1 R45       0.720000
     43 O8           6.4500    27.1810    12.1900 o          1 R45      -0.750000
     44 O9           6.7170    29.2990    12.4580 o          1 R45      -0.750000
     45 N4           6.0590    31.1650     7.3560 nt         1 R45      -0.599000
     46 H1           7.7320    25.9670     1.8140 hc         1 R45       0.074700
     47 H2           7.9920    23.5530     1.8950 hc         1 R45       0.091700
     48 H3           9.5640    23.6820     2.6700 hc         1 R45       0.091700
     49 H4           6.0830    25.2780     3.8510 ha         1 R45       0.175000
     50 H5           4.3150    25.5890     5.2310 ha         1 R45       0.134500
     51 H6           2.5900    26.3340     6.8300 ha         1 R45       0.115500
     52 H7           2.9270    26.0350     9.2800 ha         1 R45       0.096000
     53 H8           5.0190    24.9790    10.1240 ha         1 R45       0.115500
     54 H9           6.7640    24.2260     8.5460 ha         1 R45       0.134500
     55 H10         10.5780    25.2330     0.9140 hc         1 R45       0.060200
     56 H11          9.7490    26.7270     0.4850 hc         1 R45       0.060200
     57 H13          8.6230    27.3030    -2.4760 ha         1 R45       0.133500
     58 H14         10.0370    28.2500    -4.2870 ha         1 R45       0.106500
     59 H15         12.8440    25.0040    -3.8130 ha         1 R45       0.106500
     60 H16         11.4410    24.0440    -2.0000 ha         1 R45       0.133500
     61 H17          7.5110    27.5280     3.1490 hn         1 R45       0.332500
     62 H18          9.3390    27.8760     5.4670 h1         1 R45       0.067700
     63 H19          9.1260    30.3710     5.3530 hc         1 R45       0.050700
     64 H20          8.3130    30.2460     3.8000 hc         1 R45       0.050700
     65 H21         10.3140    29.3220     2.7590 hc         1 R45       0.026200
     66 H22         11.1530    29.3240     4.3940 hc         1 R45       0.026200
     67 H24          8.3110    28.8580     7.2950 hn         1 R45       0.326500
     68 H25          5.5730    27.8950     7.6810 h1         1 R45       0.081700
     69 H26          7.3470    27.6670     9.4040 hc         1 R45       0.047200
     70 H27          7.4820    29.4170     9.5430 hc         1 R45       0.047200
     71 H28          5.2220    29.5870    10.4240 hc         1 R45       0.030200
     72 H29          4.9970    27.7810    10.1840 hc         1 R45       0.030200
     73 H31          5.5460    32.0190     7.1980 hn         1 R45       0.306500
     74 H32          7.0620    31.1390     7.2590 hn         1 R45       0.306500
@<TRIPOS>BOND
     1     1     4 2   
     2     2     3 1   
     3     2     8 2   
     4     3    15 1   
     5     4     5 1   
     6     4    27 1   
     7     5     6 1   
     8     5    16 1   
     9     5    46 1   
    10     6    15 1   
    11     6    47 1   
    12     6    48 1   
    13     7     8 1   
    14     7    15 2   
    15     7    49 1   
    16     8     9 1   
    17     9    10 ar  
    18     9    14 ar  
    19    10    11 ar  
    20    10    50 1   
    21    11    12 ar  
    22    11    51 1   
    23    12    13 ar  
    24    12    52 1   
    25    13    14 ar  
    26    13    53 1   
    27    14    54 1   
    28    16    17 1   
    29    16    55 1   
    30    16    56 1   
    31    17    18 1   
    32    17    19 1   
    33    17    20 1   
    34    20    21 ar  
    35    20    26 ar  
    36    21    22 ar  
    37    21    57 1   
    38    22    23 ar  
    39    22    58 1   
    40    23    24 1   
    41    23    25 ar  
    42    25    26 ar  
    43    25    59 1   
    44    26    60 1   
    45    27    28 1   
    46    27    61 1   
    47    28    29 1   
    48    28    31 1   
    49    28    62 1   
    50    29    30 2   
    51    29    36 1   
    52    31    32 1   
    53    31    63 1   
    54    31    64 1   
    55    32    33 1   
    56    32    65 1   
    57    32    66 1   
    58    33    34 1   
    59    33    35 1   
    60    36    37 1   
    61    36    67 1   
    62    37    38 1   
    63    37    40 1   
    64    37    68 1   
    65    38    39 2   
    66    38    45 1   
    67    40    41 1   
    68    40    69 1   
    69    40    70 1   
    70    41    42 1   
    71    41    71 1   
    72    41    72 1   
    73    42    43 1   
    74    42    44 1   
    75    45    73 1   
    76    45    74 1   
@<TRIPOS>SUBSTRUCTURE
     1 R45         1 TEMP              0 ****  ****    0 ROOT
