@<TRIPOS>MOLECULE
R47
   84    87     1     0     0
SMALL
No Charge or Current Charge


@<TRIPOS>ATOM
      1 O4          10.4650    26.7380     3.4760 o          1 R47      -0.625100
      2 N1           7.8360    23.3880     5.4580 nc         1 R47      -0.389300
      3 O1           8.8410    23.3590     4.4210 os         1 R47      -0.077700
      4 C25          9.4480    26.7080     2.7970 c          1 R47       0.605100
      5 C17          9.2470    25.7200     1.6150 c3         1 R47      -0.095700
      6 C16          9.2480    24.2520     2.1310 c3         1 R47      -0.120700
      7 C14          7.1010    24.4630     3.6100 cd         1 R47      -0.256000
      8 C13          6.8220    24.0570     4.9300 cd         1 R47       0.335500
      9 C12          5.5980    24.3620     5.7060 ca         1 R47      -0.121500
     10 C11          4.4630    24.9170     5.0760 ca         1 R47      -0.076500
     11 C10          3.3200    25.2550     5.8210 ca         1 R47      -0.096000
     12 C7           3.2650    25.0410     7.2190 cp         1 R47      -0.052000
     13 C8           4.3940    24.4520     7.8370 ca         1 R47      -0.096000
     14 C9           5.5370    24.1130     7.0950 ca         1 R47      -0.076500
     15 C15          8.3580    24.0350     3.3290 cc         1 R47       0.208300
     16 C1           0.1930    26.9710     8.4460 ca         1 R47       0.125000
     17 C2           1.3180    26.5980     7.6930 ca         1 R47      -0.075000
     18 C3          -0.2160    26.1910     9.5380 ca         1 R47      -0.128000
     19 C4           0.5040    25.0350     9.8790 ca         1 R47      -0.120000
     20 C5           1.6310    24.6620     9.1270 ca         1 R47      -0.107000
     21 C6           2.0610    25.4350     8.0170 cp         1 R47       0.005000
     22 C18         10.2790    25.9600     0.4640 c3         1 R47      -0.438400
     23 P1           9.9920    25.1220    -1.1500 p5         1 R47       1.294500
     24 O2          10.4100    23.6910    -1.0280 o          1 R47      -0.827500
     25 O3           8.5560    25.2970    -1.5320 o          1 R47      -0.827500
     26 C19         11.0900    26.0200    -2.3070 ca         1 R47      -0.230500
     27 C20         10.6100    27.1400    -3.0180 ca         1 R47      -0.047000
     28 C21         11.4590    27.8350    -3.8980 ca         1 R47      -0.122500
     29 C22         12.7880    27.4150    -4.0680 ca         1 R47      -0.005900
     30 Br1         13.9400    28.3620    -5.2640 br         1 R47      -0.182100
     31 C23         13.2730    26.3040    -3.3610 ca         1 R47      -0.122500
     32 C24         12.4270    25.6070    -2.4810 ca         1 R47      -0.047000
     33 N2           8.3680    27.5250     3.0500 ns         1 R47      -0.485900
     34 C26          8.2110    28.3960     4.2360 c3         1 R47       0.025700
     35 C30          6.8160    28.1320     4.8660 c          1 R47       0.580100
     36 O7           5.8940    27.6170     4.2460 o          1 R47      -0.633100
     37 C27          8.4010    29.8920     3.8740 c3         1 R47      -0.056400
     38 C28          9.8070    30.2440     3.3210 c3         1 R47      -0.209400
     39 C29          9.9250    31.7600     3.0930 c          1 R47       0.719000
     40 O5           9.5810    32.2100     2.0110 o          1 R47      -0.751500
     41 O6          10.3080    32.4540     4.0220 o          1 R47      -0.751500
     42 N3           6.6750    28.5090     6.1860 ns         1 R47      -0.502900
     43 C31          5.5430    28.1130     7.0650 c3         1 R47       0.017700
     44 C35          4.2820    29.0110     6.8490 c          1 R47       0.603100
     45 O10          3.6340    29.5170     7.7520 o          1 R47      -0.654100
     46 C32          5.9800    28.0230     8.5520 c3         1 R47      -0.058400
     47 C33          7.2150    27.1190     8.8090 c3         1 R47      -0.214400
     48 C34          7.4730    26.9900    10.3200 c          1 R47       0.720000
     49 O8           8.1890    27.8230    10.8540 o          1 R47      -0.748500
     50 O9           6.9090    26.0940    10.9280 o          1 R47      -0.748500
     51 N4           3.9280    29.2530     5.5690 nt         1 R47      -0.596000
     52 H10          8.2500    25.9140     1.1990 hc         1 R47       0.068700
     53 H8           8.9300    23.5750     1.3290 hc         1 R47       0.090700
     54 H9          10.2740    23.9640     2.3910 hc         1 R47       0.090700
     55 H7           6.4660    25.0490     2.9590 ha         1 R47       0.162000
     56 H17          4.4610    25.1090     4.0070 ha         1 R47       0.133500
     57 H18          2.4670    25.6850     5.3020 ha         1 R47       0.116000
     58 H5           4.3970    24.2790     8.9100 ha         1 R47       0.116000
     59 H6           6.3880    23.6800     7.6160 ha         1 R47       0.133500
     60 H3           0.1880    24.4270    10.7240 ha         1 R47       0.094000
     61 H4           2.1690    23.7580     9.3990 ha         1 R47       0.111000
     62 H12         11.2870    25.6830     0.7890 hc         1 R47       0.064200
     63 H11         10.3030    27.0280     0.2180 hc         1 R47       0.064200
     64 H13          9.5810    27.4740    -2.8890 ha         1 R47       0.132000
     65 H14         11.0850    28.6970    -4.4440 ha         1 R47       0.105500
     66 H15         14.3030    25.9810    -3.4930 ha         1 R47       0.105500
     67 H16         12.8120    24.7470    -1.9340 ha         1 R47       0.132000
     68 H24          7.5630    27.4100     2.4450 hn         1 R47       0.327500
     69 H19          8.9570    28.1150     4.9910 h1         1 R47       0.084700
     70 H20          8.2160    30.4970     4.7710 hc         1 R47       0.043200
     71 H21          7.6390    30.1850     3.1400 hc         1 R47       0.043200
     72 H23          9.9050    29.7110     2.3680 hc         1 R47       0.031200
     73 H22         10.5220    29.9180     4.0860 hc         1 R47       0.031200
     74 H25          7.4780    28.9520     6.6170 hn         1 R47       0.328500
     75 H26          5.2360    27.1070     6.7570 h1         1 R47       0.086700
     76 H27          6.1920    29.0320     8.9280 hc         1 R47       0.049700
     77 H28          5.1350    27.6400     9.1390 hc         1 R47       0.049700
     78 H30          6.9690    26.1400     8.3830 hc         1 R47       0.030200
     79 H29          8.0680    27.6090     8.3240 hc         1 R47       0.030200
     80 H34          3.1320    29.8390     5.3710 hn         1 R47       0.310000
     81 H35          4.4590    28.8150     4.8260 hn         1 R47       0.310000
     82 H1           1.6230    27.2270     6.8620 ha         1 R47       0.170000
     83 Cl1         -0.7050    28.4220     8.0210 cl         1 R47      -0.219000
     84 H2          -1.0880    26.4820    10.1190 ha         1 R47       0.106000
@<TRIPOS>BOND
     1     1     4 2   
     2     2     3 1   
     3     2     8 2   
     4     3    15 1   
     5     4     5 1   
     6     4    33 1   
     7     5     6 1   
     8     5    22 1   
     9     5    52 1   
    10     6    15 1   
    11     6    53 1   
    12     6    54 1   
    13     7     8 1   
    14     7    15 2   
    15     7    55 1   
    16     8     9 1   
    17     9    10 ar  
    18     9    14 ar  
    19    10    11 ar  
    20    10    56 1   
    21    11    12 ar  
    22    11    57 1   
    23    12    13 ar  
    24    12    21 1   
    25    13    14 ar  
    26    13    58 1   
    27    14    59 1   
    28    16    17 ar  
    29    16    18 ar  
    30    16    83 1   
    31    17    21 ar  
    32    17    82 1   
    33    18    19 ar  
    34    18    84 1   
    35    19    20 ar  
    36    19    60 1   
    37    20    21 ar  
    38    20    61 1   
    39    22    23 1   
    40    22    62 1   
    41    22    63 1   
    42    23    24 1   
    43    23    25 1   
    44    23    26 1   
    45    26    27 ar  
    46    26    32 ar  
    47    27    28 ar  
    48    27    64 1   
    49    28    29 ar  
    50    28    65 1   
    51    29    30 1   
    52    29    31 ar  
    53    31    32 ar  
    54    31    66 1   
    55    32    67 1   
    56    33    34 1   
    57    33    68 1   
    58    34    35 1   
    59    34    37 1   
    60    34    69 1   
    61    35    36 2   
    62    35    42 1   
    63    37    38 1   
    64    37    70 1   
    65    37    71 1   
    66    38    39 1   
    67    38    72 1   
    68    38    73 1   
    69    39    40 1   
    70    39    41 1   
    71    42    43 1   
    72    42    74 1   
    73    43    44 1   
    74    43    46 1   
    75    43    75 1   
    76    44    45 2   
    77    44    51 1   
    78    46    47 1   
    79    46    76 1   
    80    46    77 1   
    81    47    48 1   
    82    47    78 1   
    83    47    79 1   
    84    48    49 1   
    85    48    50 1   
    86    51    80 1   
    87    51    81 1   
@<TRIPOS>SUBSTRUCTURE
     1 R47         1 TEMP              0 ****  ****    0 ROOT
