@<TRIPOS>MOLECULE
R47
   84    87     1     0     0
SMALL
abcg2


@<TRIPOS>ATOM
      1 O4          10.0360    26.6470     3.7400 o          1 R47      -0.625100
      2 N1           7.6680    22.9790     5.2690 nc         1 R47      -0.389300
      3 O1           8.6420    23.0760     4.3230 os         1 R47      -0.077700
      4 C25          9.1610    26.7050     2.8890 c          1 R47       0.605100
      5 C17          9.0810    25.6920     1.7550 c3         1 R47      -0.095700
      6 C16          9.2690    24.2810     2.3150 c3         1 R47      -0.120700
      7 C14          7.0980    24.5100     3.7310 cd         1 R47      -0.256000
      8 C13          6.7440    23.8370     4.9300 cd         1 R47       0.335500
      9 C12          5.5640    24.0700     5.7650 ca         1 R47      -0.121500
     10 C11          4.5680    24.9400     5.3300 ca         1 R47      -0.076500
     11 C10          3.4980    25.2550     6.1480 ca         1 R47      -0.096000
     12 C7           3.3880    24.7060     7.4250 cp         1 R47      -0.052000
     13 C8           4.3670    23.8020     7.8430 ca         1 R47      -0.096000
     14 C9           5.4410    23.4910     7.0280 ca         1 R47      -0.076500
     15 C15          8.3090    23.9940     3.4120 cc         1 R47       0.208300
     16 C1           0.8300    26.7930     9.2060 ca         1 R47       0.125000
     17 C2           1.8660    26.4290     8.3640 ca         1 R47      -0.075000
     18 C3           0.1890    25.8670    10.0140 ca         1 R47      -0.128000
     19 C4           0.6090    24.5450     9.9680 ca         1 R47      -0.120000
     20 C5           1.6440    24.1600     9.1300 ca         1 R47      -0.107000
     21 C6           2.2820    25.0970     8.3180 cp         1 R47       0.005000
     22 C18         10.1320    26.0360     0.6930 c3         1 R47      -0.438400
     23 P1           9.8750    25.1370    -0.8990 p5         1 R47       1.294500
     24 O2          10.2740    23.6850    -0.7450 o          1 R47      -0.827500
     25 O3           8.5020    25.5020    -1.4180 o          1 R47      -0.827500
     26 C19         11.1340    25.9690    -1.9480 ca         1 R47      -0.230500
     27 C20         10.8200    27.1280    -2.6530 ca         1 R47      -0.047000
     28 C21         11.7700    27.7860    -3.4230 ca         1 R47      -0.122500
     29 C22         13.0550    27.2670    -3.4870 ca         1 R47      -0.005900
     30 BR1         14.3600    28.1540    -4.5310 br         1 R47      -0.182100
     31 C23         13.3990    26.1110    -2.8020 ca         1 R47      -0.122500
     32 C24         12.4310    25.4710    -2.0400 ca         1 R47      -0.047000
     33 N2           8.2120    27.6580     2.8570 ns         1 R47      -0.485900
     34 C26          8.0430    28.6750     3.8660 c3         1 R47       0.025700
     35 C30          6.6880    28.4700     4.5370 c          1 R47       0.580100
     36 O7           5.6900    28.1950     3.8880 o          1 R47      -0.633100
     37 C27          8.1150    30.0880     3.2760 c3         1 R47      -0.056400
     38 C28          9.4700    30.3910     2.6590 c3         1 R47      -0.209400
     39 C29          9.6130    31.7960     2.0360 c          1 R47       0.719000
     40 O5           8.5730    32.4640     1.8680 o          1 R47      -0.751500
     41 O6          10.7750    32.1350     1.7320 o          1 R47      -0.751500
     42 N3           6.6630    28.6520     5.8680 ns         1 R47      -0.502900
     43 C31          5.4630    28.4650     6.6510 c3         1 R47       0.017700
     44 C35          4.4650    29.6140     6.5250 c          1 R47       0.603100
     45 O10          3.2870    29.4320     6.8020 o          1 R47      -0.654100
     46 C32          5.8180    28.2310     8.1210 c3         1 R47      -0.058400
     47 C33          6.5900    26.9370     8.3290 c3         1 R47      -0.214400
     48 C34          6.8400    26.5530     9.8010 c          1 R47       0.720000
     49 O8           6.7300    27.4550    10.6560 o          1 R47      -0.748500
     50 O9           7.1590    25.3640    10.0070 o          1 R47      -0.748500
     51 N4           4.9590    30.7970     6.1460 nt         1 R47      -0.596000
     52 H10          8.0950    25.7550     1.2840 hc         1 R47       0.068700
     53 H8           9.1450    23.5540     1.5100 hc         1 R47       0.090700
     54 H9          10.2900    24.1590     2.6840 hc         1 R47       0.090700
     55 H7           6.5520    25.2760     3.2090 ha         1 R47       0.162000
     56 H17          4.6210    25.3950     4.3500 ha         1 R47       0.133500
     57 H18          2.7400    25.9360     5.7830 ha         1 R47       0.116000
     58 H5           4.3150    23.3670     8.8320 ha         1 R47       0.116000
     59 H6           6.2040    22.8160     7.3930 ha         1 R47       0.133500
     60 H3           0.1160    23.8090    10.5880 ha         1 R47       0.094000
     61 H4           1.9440    23.1210     9.0950 ha         1 R47       0.111000
     62 H12         11.1360    25.8420     1.0780 hc         1 R47       0.064200
     63 H11         10.0790    27.1070     0.4730 hc         1 R47       0.064200
     64 H13          9.8160    27.5320    -2.6080 ha         1 R47       0.132000
     65 H14         11.5030    28.6850    -3.9620 ha         1 R47       0.105500
     66 H15         14.4010    25.7070    -2.8580 ha         1 R47       0.105500
     67 H16         12.7010    24.5650    -1.5120 ha         1 R47       0.132000
     68 H24          7.5100    27.6120     2.1350 hn         1 R47       0.327500
     69 H19          8.8460    28.5470     4.5930 h1         1 R47       0.084700
     70 H20          7.9010    30.8020     4.0760 hc         1 R47       0.043200
     71 H21          7.3220    30.2090     2.5350 hc         1 R47       0.043200
     72 H23          9.6860    29.6570     1.8740 hc         1 R47       0.031200
     73 H22         10.2570    30.2520     3.4060 hc         1 R47       0.031200
     74 H25          7.5280    28.8400     6.3530 hn         1 R47       0.328500
     75 H26          4.9400    27.5790     6.2830 h1         1 R47       0.086700
     76 H27          6.3790    29.0890     8.5030 hc         1 R47       0.049700
     77 H28          4.8860    28.1970     8.6870 hc         1 R47       0.049700
     78 H30          6.0630    26.1160     7.8340 hc         1 R47       0.030200
     79 H29          7.5660    26.9910     7.8320 hc         1 R47       0.030200
     80 H34          4.3550    31.6000     6.0750 hn         1 R47       0.310000
     81 H35          5.9310    30.9240     5.9240 hn         1 R47       0.310000
     82 H1           2.3650    27.1810     7.7650 ha         1 R47       0.170000
     83 CL1          0.3310    28.4540     9.2550 cl         1 R47      -0.219000
     84 H2          -0.6190    26.1670    10.6670 ha         1 R47       0.106000
@<TRIPOS>BOND
     1     1     4 2   
     2     2     3 1   
     3     2     8 2   
     4     3    15 1   
     5     4     5 1   
     6     4    33 1   
     7     5     6 1   
     8     5    22 1   
     9     5    52 1   
    10     6    15 1   
    11     6    53 1   
    12     6    54 1   
    13     7     8 1   
    14     7    15 2   
    15     7    55 1   
    16     8     9 1   
    17     9    10 ar  
    18     9    14 ar  
    19    10    11 ar  
    20    10    56 1   
    21    11    12 ar  
    22    11    57 1   
    23    12    13 ar  
    24    12    21 1   
    25    13    14 ar  
    26    13    58 1   
    27    14    59 1   
    28    16    17 ar  
    29    16    18 ar  
    30    16    83 1   
    31    17    21 ar  
    32    17    82 1   
    33    18    19 ar  
    34    18    84 1   
    35    19    20 ar  
    36    19    60 1   
    37    20    21 ar  
    38    20    61 1   
    39    22    23 1   
    40    22    62 1   
    41    22    63 1   
    42    23    24 1   
    43    23    25 1   
    44    23    26 1   
    45    26    27 ar  
    46    26    32 ar  
    47    27    28 ar  
    48    27    64 1   
    49    28    29 ar  
    50    28    65 1   
    51    29    30 1   
    52    29    31 ar  
    53    31    32 ar  
    54    31    66 1   
    55    32    67 1   
    56    33    34 1   
    57    33    68 1   
    58    34    35 1   
    59    34    37 1   
    60    34    69 1   
    61    35    36 2   
    62    35    42 1   
    63    37    38 1   
    64    37    70 1   
    65    37    71 1   
    66    38    39 1   
    67    38    72 1   
    68    38    73 1   
    69    39    40 1   
    70    39    41 1   
    71    42    43 1   
    72    42    74 1   
    73    43    44 1   
    74    43    46 1   
    75    43    75 1   
    76    44    45 2   
    77    44    51 1   
    78    46    47 1   
    79    46    76 1   
    80    46    77 1   
    81    47    48 1   
    82    47    78 1   
    83    47    79 1   
    84    48    49 1   
    85    48    50 1   
    86    51    80 1   
    87    51    81 1   
@<TRIPOS>SUBSTRUCTURE
     1 R47         1 TEMP              0 ****  ****    0 ROOT
