@<TRIPOS>MOLECULE
R48
   68    72     1     0     0
SMALL
No Charge or Current Charge


@<TRIPOS>ATOM
      1 C5          -6.1600     1.1720     0.6880 ca         1 R48      -0.119000
      2 C1S         -7.2130     0.5240    -0.0060 ca         1 R48      -0.174000
      3 C2B         -8.4070     1.2070    -0.2780 ca         1 R48       0.294000
      4 N1E         -9.4170     0.5730    -0.9500 nv         1 R48      -1.078000
      5 C1M         -8.5620     2.5360     0.1380 ca         1 R48      -0.136000
      6 C1P         -7.5230     3.1880     0.8240 ca         1 R48      -0.055000
      7 C4          -6.3170     2.5190     1.1040 ca         1 R48       0.007000
      8 N3          -5.3250     3.1510     1.7640 nb         1 R48      -0.189000
      9 C2          -4.1980     2.4530     2.0060 ca         1 R48       0.151900
     10 N1          -3.9540     1.1770     1.6570 nb         1 R48      -0.277000
     11 C6          -4.9280     0.5340     0.9890 ca         1 R48       0.397900
     12 N1Y         -4.6900    -0.8040     0.6600 nu         1 R48      -0.930900
     13 C2D         -3.5580    -1.6190     0.6370 ca         1 R48       0.336000
     14 C1Q         -2.2650    -1.1040     0.4370 ca         1 R48      -0.193000
     15 C1J         -3.7320    -3.0030     0.7740 ca         1 R48      -0.198000
     16 C1G         -2.6230    -3.8640     0.7430 ca         1 R48      -0.056000
     17 C1I         -1.3320    -3.3420     0.5610 ca         1 R48      -0.155000
     18 C2C         -1.1420    -1.9520     0.4010 ca         1 R48       0.020000
     19 N1W          0.1300    -1.3470     0.2000 ns         1 R48      -0.161000
     20 C1Z          1.4050    -1.8770     0.0750 c          1 R48       0.675100
     21 O1F          1.6700    -3.0700     0.1130 o          1 R48      -0.591100
     22 N1X          2.3580    -0.8930    -0.1030 ns         1 R48      -0.420100
     23 C2G          3.7370    -1.0250    -0.2610 cc         1 R48       0.027600
     24 C1R          4.5070    -2.1510    -0.2480 cd         1 R48      -0.229000
     25 C2F          5.8600    -1.7560    -0.4320 cd         1 R48       0.280300
     26 C2L          7.0600    -2.7020    -0.4830 c3         1 R48      -0.072300
     27 C1C          8.4040    -1.9440    -0.6950 c3         1 R48      -0.079767
     28 C1D          7.1430    -3.4870     0.8530 c3         1 R48      -0.079767
     29 C1B          6.8680    -3.7010    -1.6540 c3         1 R48      -0.079767
     30 N1V          5.9860    -0.4420    -0.5630 nc         1 R48      -0.509800
     31 N2K          4.6820    -0.0240    -0.4480 na         1 R48       0.177000
     32 C2E          4.3660     1.3300    -0.5770 ca         1 R48       0.006800
     33 C1N          4.9240     2.2770     0.3050 ca         1 R48      -0.106500
     34 C1K          4.6000     3.6390     0.1810 ca         1 R48      -0.104500
     35 C2A          3.7150     4.0710    -0.8250 ca         1 R48      -0.071300
     36 C1A          3.3680     5.5450    -0.9600 c3         1 R48      -0.049800
     37 C1L          3.1630     3.1270    -1.7110 ca         1 R48      -0.104500
     38 C1O          3.4870     1.7640    -1.5890 ca         1 R48      -0.106500
     39 H1S         -7.1100    -0.5030    -0.3430 ha         1 R48       0.105000
     40 HN1E        -9.2490    -0.3360    -1.3780 hn         1 R48       0.456000
     41 HN1A       -10.2240     1.1040    -1.2770 hn         1 R48       0.456000
     42 H1M         -9.4860     3.0690    -0.0690 ha         1 R48       0.119000
     43 H1P         -7.6550     4.2210     1.1400 ha         1 R48       0.136000
     44 H2          -3.4070     2.9740     2.5430 h5         1 R48       0.043100
     45 HN1Y        -5.5490    -1.3130     0.4700 hn         1 R48       0.499000
     46 H1Q         -2.1280    -0.0380     0.2910 ha         1 R48       0.152000
     47 H1J         -4.7260    -3.4170     0.9160 ha         1 R48       0.110000
     48 H1G         -2.7640    -4.9360     0.8590 ha         1 R48       0.116000
     49 H1I         -0.4980    -4.0350     0.5440 ha         1 R48       0.149000
     50 HN1W         0.0890    -0.3390     0.1390 hn         1 R48       0.152000
     51 HN1X         1.9840     0.0470    -0.1130 hn         1 R48       0.327500
     52 H1R          4.1650    -3.1700    -0.1190 ha         1 R48       0.168000
     53 H1C          8.5900    -1.2350     0.1210 hc         1 R48       0.036589
     54 H1CA         9.2480    -2.6440    -0.7270 hc         1 R48       0.036589
     55 H1CB         8.3980    -1.3860    -1.6390 hc         1 R48       0.036589
     56 H1D          6.2370    -4.0810     1.0210 hc         1 R48       0.036589
     57 H1DA         7.9990    -4.1730     0.8550 hc         1 R48       0.036589
     58 H1DB         7.2580    -2.7990     1.7000 hc         1 R48       0.036589
     59 H1B          6.7860    -3.1680    -2.6090 hc         1 R48       0.036589
     60 H1BA         7.7160    -4.3940    -1.7250 hc         1 R48       0.036589
     61 H1BB         5.9580    -4.2980    -1.5220 hc         1 R48       0.036589
     62 H1N          5.6080     1.9540     1.0870 ha         1 R48       0.132500
     63 H1K          5.0380     4.3600     0.8690 ha         1 R48       0.118000
     64 H1A          4.0690     6.0510    -1.6350 hc         1 R48       0.046033
     65 H1AA         2.3570     5.6830    -1.3630 hc         1 R48       0.046033
     66 H1AB         3.4070     6.0570     0.0090 hc         1 R48       0.046033
     67 H1L          2.4850     3.4490    -2.4980 ha         1 R48       0.118000
     68 H1O          3.0590     1.0460    -2.2860 ha         1 R48       0.132500
@<TRIPOS>BOND
     1     1     2 ar  
     2     1     7 ar  
     3     1    11 ar  
     4     2     3 ar  
     5     2    39 1   
     6     3     4 1   
     7     3     5 ar  
     8     4    40 1   
     9     4    41 1   
    10     5     6 ar  
    11     5    42 1   
    12     6     7 ar  
    13     6    43 1   
    14     7     8 ar  
    15     8     9 ar  
    16     9    10 ar  
    17     9    44 1   
    18    10    11 ar  
    19    11    12 1   
    20    12    13 1   
    21    12    45 1   
    22    13    14 ar  
    23    13    15 ar  
    24    14    18 ar  
    25    14    46 1   
    26    15    16 ar  
    27    15    47 1   
    28    16    17 ar  
    29    16    48 1   
    30    17    18 ar  
    31    17    49 1   
    32    18    19 1   
    33    19    20 1   
    34    19    50 1   
    35    20    21 2   
    36    20    22 1   
    37    22    23 1   
    38    22    51 1   
    39    23    24 2   
    40    23    31 1   
    41    24    25 1   
    42    24    52 1   
    43    25    26 1   
    44    25    30 2   
    45    26    27 1   
    46    26    28 1   
    47    26    29 1   
    48    27    53 1   
    49    27    54 1   
    50    27    55 1   
    51    28    56 1   
    52    28    57 1   
    53    28    58 1   
    54    29    59 1   
    55    29    60 1   
    56    29    61 1   
    57    30    31 1   
    58    31    32 1   
    59    32    33 ar  
    60    32    38 ar  
    61    33    34 ar  
    62    33    62 1   
    63    34    35 ar  
    64    34    63 1   
    65    35    36 1   
    66    35    37 ar  
    67    36    64 1   
    68    36    65 1   
    69    36    66 1   
    70    37    38 ar  
    71    37    67 1   
    72    38    68 1   
@<TRIPOS>SUBSTRUCTURE
     1 R48         1 TEMP              0 ****  ****    0 ROOT
