@<TRIPOS>MOLECULE
R48
   68    72     1     0     0
SMALL
abcg2


@<TRIPOS>ATOM
      1 C5          -6.1990     1.1100     0.3440 ca         1 R48      -0.119000
      2 C1S         -7.3590     0.3170     0.3600 ca         1 R48      -0.174000
      3 C2B         -8.6170     0.8950     0.3260 ca         1 R48       0.294000
      4 N1E         -9.7620     0.1440     0.4000 nv         1 R48      -1.078000
      5 C1M         -8.7090     2.3090     0.2640 ca         1 R48      -0.136000
      6 C1P         -7.5890     3.0880     0.2420 ca         1 R48      -0.055000
      7 C4          -6.3020     2.5140     0.2830 ca         1 R48       0.007000
      8 N3          -5.2130     3.3290     0.2570 nb         1 R48      -0.189000
      9 C2          -4.0580     2.7380     0.2900 ca         1 R48       0.151900
     10 N1          -3.8210     1.4170     0.3470 nb         1 R48      -0.277000
     11 C6          -4.8490     0.6010     0.3760 ca         1 R48       0.397900
     12 N1Y         -4.6500    -0.7380     0.4370 nu         1 R48      -0.930900
     13 C2D         -3.4800    -1.4960     0.4530 ca         1 R48       0.336000
     14 C1Q         -2.1930    -0.9720     0.3870 ca         1 R48      -0.193000
     15 C1J         -3.6470    -2.8840     0.5300 ca         1 R48      -0.198000
     16 C1G         -2.5380    -3.7060     0.5440 ca         1 R48      -0.056000
     17 C1I         -1.2470    -3.1980     0.4840 ca         1 R48      -0.155000
     18 C2C         -1.0800    -1.8180     0.4010 ca         1 R48       0.020000
     19 N1W          0.1610    -1.1770     0.3640 ns         1 R48      -0.161000
     20 C1Z          1.3770    -1.7190     0.0630 c          1 R48       0.675100
     21 O1F          1.5670    -2.8840    -0.2270 o          1 R48      -0.591100
     22 N1X          2.3890    -0.7920     0.1230 ns         1 R48      -0.420100
     23 C2G          3.7130    -1.0750    -0.1420 cc         1 R48       0.027600
     24 C1R          4.4310    -2.2470    -0.1860 cd         1 R48      -0.229000
     25 C2F          5.7620    -1.8380    -0.4290 cd         1 R48       0.280300
     26 C2L          6.9660    -2.7320    -0.5640 c3         1 R48      -0.072300
     27 C1C          8.2390    -1.9130    -0.7690 c3         1 R48      -0.079767
     28 C1D          7.1050    -3.5780     0.7080 c3         1 R48      -0.079767
     29 C1B          6.7620    -3.6640    -1.7650 c3         1 R48      -0.079767
     30 N1V          5.8490    -0.5310    -0.5260 nc         1 R48      -0.509800
     31 N2K          4.5950    -0.0670    -0.3690 na         1 R48       0.177000
     32 C2E          4.3540     1.3240    -0.3790 ca         1 R48       0.006800
     33 C1N          5.1330     2.1570     0.4160 ca         1 R48      -0.106500
     34 C1K          4.9070     3.5230     0.4050 ca         1 R48      -0.104500
     35 C2A          3.8990     4.0850    -0.3780 ca         1 R48      -0.071300
     36 C1A          3.6750     5.5680    -0.3970 c3         1 R48      -0.049800
     37 C1L          3.1280     3.2330    -1.1650 ca         1 R48      -0.104500
     38 C1O          3.3570     1.8640    -1.1820 ca         1 R48      -0.106500
     39 H1S         -7.3060    -0.7640     0.3970 ha         1 R48       0.105000
     40 HN1E        -9.6760    -0.8320     0.1680 hn         1 R48       0.456000
     41 HN1A       -10.5960     0.5590     0.0170 hn         1 R48       0.456000
     42 H1M         -9.6880     2.7720     0.2340 ha         1 R48       0.119000
     43 H1P         -7.6710     4.1670     0.1930 ha         1 R48       0.136000
     44 H2          -3.1740     3.3670     0.2690 h5         1 R48       0.043100
     45 HN1Y        -5.4820    -1.3030     0.4780 hn         1 R48       0.499000
     46 H1Q         -2.0540     0.0970     0.3250 ha         1 R48       0.152000
     47 H1J         -4.6410    -3.3110     0.5800 ha         1 R48       0.110000
     48 H1G         -2.6770    -4.7770     0.6090 ha         1 R48       0.116000
     49 H1I         -0.4060    -3.8700     0.5090 ha         1 R48       0.149000
     50 HN1W         0.1150    -0.1750     0.4720 hn         1 R48       0.152000
     51 HN1X         2.1740     0.1480     0.4250 hn         1 R48       0.327500
     52 H1R          4.0640    -3.2470    -0.0440 ha         1 R48       0.168000
     53 H1C          8.4150    -1.2250     0.0580 hc         1 R48       0.036589
     54 H1CA         9.1000    -2.5800    -0.8390 hc         1 R48       0.036589
     55 H1CB         8.1980    -1.3260    -1.6880 hc         1 R48       0.036589
     56 H1D          6.2340    -4.2170     0.8660 hc         1 R48       0.036589
     57 H1DA         7.9800    -4.2280     0.6350 hc         1 R48       0.036589
     58 H1DB         7.2250    -2.9500     1.5930 hc         1 R48       0.036589
     59 H1B          6.6660    -3.0980    -2.6930 hc         1 R48       0.036589
     60 H1BA         7.6140    -4.3400    -1.8710 hc         1 R48       0.036589
     61 H1BB         5.8670    -4.2770    -1.6510 hc         1 R48       0.036589
     62 H1N          5.9100     1.7350     1.0400 ha         1 R48       0.132500
     63 H1K          5.5190     4.1630     1.0280 ha         1 R48       0.118000
     64 H1A          4.2960     6.0430    -1.1600 hc         1 R48       0.046033
     65 H1AA         2.6390     5.8140    -0.6250 hc         1 R48       0.046033
     66 H1AB         3.9320     6.0250     0.5580 hc         1 R48       0.046033
     67 H1L          2.3420     3.6410    -1.7870 ha         1 R48       0.118000
     68 H1O          2.7690     1.2280    -1.8320 ha         1 R48       0.132500
@<TRIPOS>BOND
     1     1     2 ar  
     2     1     7 ar  
     3     1    11 ar  
     4     2     3 ar  
     5     2    39 1   
     6     3     4 1   
     7     3     5 ar  
     8     4    40 1   
     9     4    41 1   
    10     5     6 ar  
    11     5    42 1   
    12     6     7 ar  
    13     6    43 1   
    14     7     8 ar  
    15     8     9 ar  
    16     9    10 ar  
    17     9    44 1   
    18    10    11 ar  
    19    11    12 1   
    20    12    13 1   
    21    12    45 1   
    22    13    14 ar  
    23    13    15 ar  
    24    14    18 ar  
    25    14    46 1   
    26    15    16 ar  
    27    15    47 1   
    28    16    17 ar  
    29    16    48 1   
    30    17    18 ar  
    31    17    49 1   
    32    18    19 1   
    33    19    20 1   
    34    19    50 1   
    35    20    21 2   
    36    20    22 1   
    37    22    23 1   
    38    22    51 1   
    39    23    24 2   
    40    23    31 1   
    41    24    25 1   
    42    24    52 1   
    43    25    26 1   
    44    25    30 2   
    45    26    27 1   
    46    26    28 1   
    47    26    29 1   
    48    27    53 1   
    49    27    54 1   
    50    27    55 1   
    51    28    56 1   
    52    28    57 1   
    53    28    58 1   
    54    29    59 1   
    55    29    60 1   
    56    29    61 1   
    57    30    31 1   
    58    31    32 1   
    59    32    33 ar  
    60    32    38 ar  
    61    33    34 ar  
    62    33    62 1   
    63    34    35 ar  
    64    34    63 1   
    65    35    36 1   
    66    35    37 ar  
    67    36    64 1   
    68    36    65 1   
    69    36    66 1   
    70    37    38 ar  
    71    37    67 1   
    72    38    68 1   
@<TRIPOS>SUBSTRUCTURE
     1 R48         1 TEMP              0 ****  ****    0 ROOT
