@<TRIPOS>MOLECULE
R49
   69    73     1     0     0
SMALL
No Charge or Current Charge


@<TRIPOS>ATOM
      1 CAA          7.8930     3.0550     2.0380 c3         1 R49      -0.049800
      2 CBA          6.9440     2.6020     0.9380 ca         1 R49      -0.064300
      3 CAR          6.5430     1.2550     0.8580 ca         1 R49      -0.096000
      4 CAI          6.4540     3.5270    -0.0030 ca         1 R49      -0.112000
      5 CAG          5.5770     3.1090    -1.0170 ca         1 R49      -0.100000
      6 CAJ          5.1820     1.7630    -1.0950 ca         1 R49      -0.133000
      7 CBE          5.6590     0.8280    -0.1540 ca         1 R49       0.015800
      8 NBK          5.2610    -0.5090    -0.2210 na         1 R49       0.179000
      9 NAV          6.2010    -1.5020    -0.3690 nc         1 R49      -0.508800
     10 CBG          5.4390    -2.5860    -0.4330 cd         1 R49       0.280300
     11 CBL          6.0260    -3.9890    -0.5960 c3         1 R49      -0.073300
     12 CAC          5.4760    -4.6190    -1.9030 c3         1 R49      -0.080100
     13 CAD          7.5820    -3.9760    -0.6710 c3         1 R49      -0.080100
     14 CAB          5.5980    -4.8600     0.6140 c3         1 R49      -0.080100
     15 CAS          4.0550    -2.2780    -0.3360 cd         1 R49      -0.225000
     16 CBH          3.9360    -0.9260    -0.2000 cc         1 R49       0.024600
     17 NAX          2.7890    -0.1490    -0.0510 ns         1 R49      -0.422100
     18 CAZ          1.4650    -0.5450    -0.0350 c          1 R49       0.670100
     19 OAF          1.1100    -1.7090    -0.1610 o          1 R49      -0.589100
     20 NAW          0.6040     0.5290     0.1430 ns         1 R49      -0.164000
     21 CBC         -0.8150     0.6170     0.2110 ca         1 R49      -0.042000
     22 CAM         -1.3770     1.8780     0.4870 ca         1 R49      -0.107000
     23 CAO         -2.7720     2.0400     0.5670 ca         1 R49      -0.128000
     24 CAL         -1.6790    -0.4810     0.0040 ca         1 R49      -0.107000
     25 CAN         -3.0730    -0.3130     0.0860 ca         1 R49      -0.128000
     26 CBD         -3.6280     0.9440     0.3820 ca         1 R49       0.281000
     27 NAY         -5.0110     1.1400     0.4530 nu         1 R49      -0.980000
     28 CBF         -6.0960     0.2890     0.7010 ca         1 R49       0.353000
     29 CBJ         -7.3930     0.5710     0.2070 ca         1 R49      -0.072000
     30 CAT         -7.6610     1.7070    -0.6010 ca         1 R49      -0.185000
     31 CBB         -8.9550     1.9530    -1.0760 ca         1 R49       0.290000
     32 NAE         -9.2000     3.0510    -1.8540 nv         1 R49      -1.076000
     33 CAP         -9.9940     1.0720    -0.7560 ca         1 R49      -0.148000
     34 CAQ         -9.7380    -0.0580     0.0400 ca         1 R49      -0.052000
     35 CBI         -8.4460    -0.3250     0.5300 ca         1 R49       0.256000
     36 NAU         -8.2460    -1.4240     1.2930 nb         1 R49      -0.678000
     37 CAH         -7.0070    -1.6720     1.7650 ca         1 R49       0.370900
     38 CAK         -5.9170    -0.8440     1.4990 ca         1 R49      -0.243000
     39 HAA          7.3370     3.3370     2.9400 hc         1 R49       0.046033
     40 HAAA         8.5950     2.2590     2.3120 hc         1 R49       0.046033
     41 HAAB         8.4860     3.9220     1.7240 hc         1 R49       0.046033
     42 HAR          6.9140     0.5360     1.5860 ha         1 R49       0.136000
     43 HAI          6.7540     4.5720     0.0510 ha         1 R49       0.116000
     44 HAG          5.2060     3.8280    -1.7450 ha         1 R49       0.118000
     45 HAJ          4.5100     1.4450    -1.8900 ha         1 R49       0.130000
     46 HAC          5.7480    -4.0080    -2.7720 hc         1 R49       0.036811
     47 HACA         5.8810    -5.6270    -2.0550 hc         1 R49       0.036811
     48 HACB         4.3820    -4.6980    -1.8750 hc         1 R49       0.036811
     49 HAD          8.0170    -3.5510     0.2420 hc         1 R49       0.036811
     50 HADA         7.9770    -4.9920    -0.7870 hc         1 R49       0.036811
     51 HADB         7.9310    -3.3830    -1.5250 hc         1 R49       0.036811
     52 HAB          4.5070    -4.9430     0.6780 hc         1 R49       0.036811
     53 HABA         6.0080    -5.8740     0.5340 hc         1 R49       0.036811
     54 HABB         5.9580    -4.4220     1.5540 hc         1 R49       0.036811
     55 HAS          3.2500    -3.0010    -0.3620 ha         1 R49       0.166000
     56 HNAX         2.9210     0.8480     0.0660 hn         1 R49       0.325500
     57 HNAW         1.0680     1.4220     0.2430 hn         1 R49       0.148000
     58 HAM         -0.7310     2.7410     0.6420 ha         1 R49       0.127000
     59 HAO         -3.1840     3.0220     0.7830 ha         1 R49       0.123500
     60 HAL         -1.2950    -1.4680    -0.2320 ha         1 R49       0.127000
     61 HAN         -3.7200    -1.1650    -0.1010 ha         1 R49       0.123500
     62 HNAY        -5.2940     2.1040     0.2790 hn         1 R49       0.492000
     63 HAT         -6.8680     2.3980    -0.8710 ha         1 R49       0.106000
     64 HNAE        -8.4770     3.7570    -1.9800 hn         1 R49       0.450500
     65 HNAA       -10.1570     3.3060    -2.0920 hn         1 R49       0.450500
     66 HAP        -11.0010     1.2560    -1.1220 ha         1 R49       0.115000
     67 HAQ        -10.5520    -0.7370     0.2820 ha         1 R49       0.131000
     68 HAH         -6.8920    -2.5600     2.3860 h4         1 R49       0.017100
     69 HAK         -4.9520    -1.0800     1.9320 ha         1 R49       0.131000
@<TRIPOS>BOND
     1     1     2 1   
     2     1    39 1   
     3     1    40 1   
     4     1    41 1   
     5     2     3 ar  
     6     2     4 ar  
     7     3     7 ar  
     8     3    42 1   
     9     4     5 ar  
    10     4    43 1   
    11     5     6 ar  
    12     5    44 1   
    13     6     7 ar  
    14     6    45 1   
    15     7     8 1   
    16     8     9 1   
    17     8    16 1   
    18     9    10 2   
    19    10    11 1   
    20    10    15 1   
    21    11    12 1   
    22    11    13 1   
    23    11    14 1   
    24    12    46 1   
    25    12    47 1   
    26    12    48 1   
    27    13    49 1   
    28    13    50 1   
    29    13    51 1   
    30    14    52 1   
    31    14    53 1   
    32    14    54 1   
    33    15    16 2   
    34    15    55 1   
    35    16    17 1   
    36    17    18 1   
    37    17    56 1   
    38    18    19 2   
    39    18    20 1   
    40    20    21 1   
    41    20    57 1   
    42    21    22 ar  
    43    21    24 ar  
    44    22    23 ar  
    45    22    58 1   
    46    23    26 ar  
    47    23    59 1   
    48    24    25 ar  
    49    24    60 1   
    50    25    26 ar  
    51    25    61 1   
    52    26    27 1   
    53    27    28 1   
    54    27    62 1   
    55    28    29 ar  
    56    28    38 ar  
    57    29    30 ar  
    58    29    35 ar  
    59    30    31 ar  
    60    30    63 1   
    61    31    32 1   
    62    31    33 ar  
    63    32    64 1   
    64    32    65 1   
    65    33    34 ar  
    66    33    66 1   
    67    34    35 ar  
    68    34    67 1   
    69    35    36 ar  
    70    36    37 ar  
    71    37    38 ar  
    72    37    68 1   
    73    38    69 1   
@<TRIPOS>SUBSTRUCTURE
     1 R49         1 TEMP              0 ****  ****    0 ROOT
