@<TRIPOS>MOLECULE
R49
   69    73     1     0     0
SMALL
abcg2


@<TRIPOS>ATOM
      1 CAA          8.4250     2.9580     0.9320 c3         1 R49      -0.049800
      2 CBA          7.2160     2.5190     0.1610 ca         1 R49      -0.064300
      3 CAR          6.6920     1.2420     0.3260 ca         1 R49      -0.096000
      4 CAI          6.5730     3.3950    -0.7140 ca         1 R49      -0.112000
      5 CAG          5.4440     2.9990    -1.4110 ca         1 R49      -0.100000
      6 CAJ          4.9310     1.7180    -1.2560 ca         1 R49      -0.133000
      7 CBE          5.5580     0.8460    -0.3750 ca         1 R49       0.015800
      8 NBK          5.0600    -0.4620    -0.1920 na         1 R49       0.179000
      9 NAV          5.9040    -1.5100    -0.2170 nc         1 R49      -0.508800
     10 CBG          5.1610    -2.5730    -0.0070 cd         1 R49       0.280300
     11 CBL          5.7360    -3.9650     0.0310 c3         1 R49      -0.073300
     12 CAC          5.0450    -4.8180    -1.0400 c3         1 R49      -0.080100
     13 CAD          7.2420    -3.9500    -0.2270 c3         1 R49      -0.080100
     14 CAB          5.4630    -4.5730     1.4120 c3         1 R49      -0.080100
     15 CAS          3.8060    -2.2200     0.1840 cd         1 R49      -0.225000
     16 CBH          3.7850    -0.8520     0.0690 cc         1 R49       0.024600
     17 NAX          2.7830     0.0840     0.2260 ns         1 R49      -0.422100
     18 CAZ          1.4480    -0.1880     0.0470 c          1 R49       0.670100
     19 OAF          1.0390    -1.2680    -0.3320 o          1 R49      -0.589100
     20 NAW          0.6510     0.8820     0.3300 ns         1 R49      -0.164000
     21 CBC         -0.7510     0.8770     0.2920 ca         1 R49      -0.042000
     22 CAM         -1.4410     1.6110     1.2530 ca         1 R49      -0.107000
     23 CAO         -2.8240     1.6670     1.2440 ca         1 R49      -0.128000
     24 CAL         -1.4790     0.2180    -0.6970 ca         1 R49      -0.107000
     25 CAN         -2.8620     0.2790    -0.7070 ca         1 R49      -0.128000
     26 CBD         -3.5560     0.9920     0.2690 ca         1 R49       0.281000
     27 NAY         -4.9480     1.1100     0.2530 nu         1 R49      -0.980000
     28 CBF         -5.8540     0.1010     0.0570 ca         1 R49       0.353000
     29 CBJ         -7.2400     0.4370    -0.0990 ca         1 R49      -0.072000
     30 CAT         -7.7100     1.7660    -0.1180 ca         1 R49      -0.185000
     31 CBB         -9.0550     2.0530    -0.2540 ca         1 R49       0.290000
     32 NAE         -9.5170     3.3450    -0.3390 nv         1 R49      -1.076000
     33 CAP         -9.9680     0.9740    -0.3750 ca         1 R49      -0.148000
     34 CAQ         -9.5280    -0.3170    -0.3750 ca         1 R49      -0.052000
     35 CBI         -8.1550    -0.6330    -0.2470 ca         1 R49       0.256000
     36 NAU         -7.7920    -1.9380    -0.2810 nb         1 R49      -0.678000
     37 CAH         -6.5160    -2.2010    -0.1640 ca         1 R49       0.370900
     38 CAK         -5.5140    -1.2360     0.0100 ca         1 R49      -0.243000
     39 HAA          8.1430     3.6150     1.7570 hc         1 R49       0.046033
     40 HAAA         8.9600     2.1100     1.3580 hc         1 R49       0.046033
     41 HAAB         9.1190     3.5140     0.3010 hc         1 R49       0.046033
     42 HAR          7.1680     0.5450     1.0040 ha         1 R49       0.136000
     43 HAI          6.9640     4.3960    -0.8530 ha         1 R49       0.116000
     44 HAG          4.9630     3.6830    -2.0970 ha         1 R49       0.118000
     45 HAJ          4.0700     1.4020    -1.8300 ha         1 R49       0.130000
     46 HAC          5.2400    -4.4310    -2.0420 hc         1 R49       0.036811
     47 HACA         5.4090    -5.8460    -1.0000 hc         1 R49       0.036811
     48 HACB         3.9630    -4.8460    -0.8960 hc         1 R49       0.036811
     49 HAD          7.7720    -3.3490     0.5120 hc         1 R49       0.036811
     50 HADA         7.6320    -4.9680    -0.1750 hc         1 R49       0.036811
     51 HADB         7.4780    -3.5510    -1.2140 hc         1 R49       0.036811
     52 HAB          4.3940    -4.6170     1.6280 hc         1 R49       0.036811
     53 HABA         5.8540    -5.5910     1.4630 hc         1 R49       0.036811
     54 HABB         5.9410    -3.9910     2.2030 hc         1 R49       0.036811
     55 HAS          2.9770    -2.8730     0.3910 ha         1 R49       0.166000
     56 HNAX         3.0610     1.0080     0.5210 hn         1 R49       0.325500
     57 HNAW         1.0690     1.6760     0.7900 hn         1 R49       0.148000
     58 HAM         -0.8950     2.1330     2.0290 ha         1 R49       0.127000
     59 HAO         -3.3390     2.2330     2.0110 ha         1 R49       0.123500
     60 HAL         -0.9770    -0.3220    -1.4850 ha         1 R49       0.127000
     61 HAN         -3.4000    -0.2150    -1.5060 ha         1 R49       0.123500
     62 HNAY        -5.3040     1.9470     0.6860 hn         1 R49       0.492000
     63 HAT         -7.0170     2.5970    -0.0520 ha         1 R49       0.106000
     64 HNAE        -8.9190     4.0580     0.0470 hn         1 R49       0.450500
     65 HNAA       -10.4840     3.4880    -0.0960 hn         1 R49       0.450500
     66 HAP        -11.0260     1.1830    -0.4770 ha         1 R49       0.115000
     67 HAQ        -10.2320    -1.1340    -0.4750 ha         1 R49       0.131000
     68 HAH         -6.2280    -3.2470    -0.1910 h4         1 R49       0.017100
     69 HAK         -4.4910    -1.5640     0.1300 ha         1 R49       0.131000
@<TRIPOS>BOND
     1     1     2 1   
     2     1    39 1   
     3     1    40 1   
     4     1    41 1   
     5     2     3 ar  
     6     2     4 ar  
     7     3     7 ar  
     8     3    42 1   
     9     4     5 ar  
    10     4    43 1   
    11     5     6 ar  
    12     5    44 1   
    13     6     7 ar  
    14     6    45 1   
    15     7     8 1   
    16     8     9 1   
    17     8    16 1   
    18     9    10 2   
    19    10    11 1   
    20    10    15 1   
    21    11    12 1   
    22    11    13 1   
    23    11    14 1   
    24    12    46 1   
    25    12    47 1   
    26    12    48 1   
    27    13    49 1   
    28    13    50 1   
    29    13    51 1   
    30    14    52 1   
    31    14    53 1   
    32    14    54 1   
    33    15    16 2   
    34    15    55 1   
    35    16    17 1   
    36    17    18 1   
    37    17    56 1   
    38    18    19 2   
    39    18    20 1   
    40    20    21 1   
    41    20    57 1   
    42    21    22 ar  
    43    21    24 ar  
    44    22    23 ar  
    45    22    58 1   
    46    23    26 ar  
    47    23    59 1   
    48    24    25 ar  
    49    24    60 1   
    50    25    26 ar  
    51    25    61 1   
    52    26    27 1   
    53    27    28 1   
    54    27    62 1   
    55    28    29 ar  
    56    28    38 ar  
    57    29    30 ar  
    58    29    35 ar  
    59    30    31 ar  
    60    30    63 1   
    61    31    32 1   
    62    31    33 ar  
    63    32    64 1   
    64    32    65 1   
    65    33    34 ar  
    66    33    66 1   
    67    34    35 ar  
    68    34    67 1   
    69    35    36 ar  
    70    36    37 ar  
    71    37    38 ar  
    72    37    68 1   
    73    38    69 1   
@<TRIPOS>SUBSTRUCTURE
     1 R49         1 TEMP              0 ****  ****    0 ROOT
