@<TRIPOS>MOLECULE
R4B
   74    77     1     0     0
SMALL
No Charge or Current Charge


@<TRIPOS>ATOM
      1 O4          -2.1060     0.9490    -2.5960 o          1 R4B      -0.623100
      2 N1           2.0700    -0.9680    -2.7570 nc         1 R4B      -0.384300
      3 O1           0.7290    -1.4200    -3.0450 os         1 R4B      -0.061700
      4 C25         -1.8950     0.5080    -1.4740 c          1 R4B       0.601100
      5 C17         -2.2530    -0.9440    -1.0530 c3         1 R4B      -0.090700
      6 C16         -1.3930    -1.9600    -1.8570 c3         1 R4B      -0.127700
      7 C14          0.9220    -1.3210    -0.8400 cd         1 R4B      -0.265000
      8 C13          2.1360    -0.9250    -1.4350 cd         1 R4B       0.320500
      9 C12          3.3480    -0.4580    -0.7260 ca         1 R4B      -0.107500
     10 C11          3.5030    -0.6830     0.6580 ca         1 R4B      -0.085500
     11 C10          4.6520    -0.2370     1.3340 ca         1 R4B      -0.106500
     12 C7           5.6860     0.4480     0.6520 cp         1 R4B      -0.046000
     13 C8           5.5320     0.6500    -0.7410 ca         1 R4B      -0.106500
     14 C9           4.3870     0.2010    -1.4200 ca         1 R4B      -0.085500
     15 C15          0.0700    -1.6090    -1.8570 cc         1 R4B       0.222300
     16 C1           8.6310     2.6590     1.7000 ca         1 R4B       0.119000
     17 C2           7.5040     2.1790     1.0130 ca         1 R4B      -0.096000
     18 C3           9.1750     1.9250     2.7650 ca         1 R4B      -0.109000
     19 C4           8.5870     0.7070     3.1460 ca         1 R4B      -0.105000
     20 C5           7.4570     0.2280     2.4590 ca         1 R4B      -0.101000
     21 C6           6.8930     0.9530     1.3790 cp         1 R4B      -0.012000
     22 C18         -3.7880    -1.2290    -1.1530 c3         1 R4B      -0.433400
     23 P1          -4.4330    -2.7660    -0.3690 p5         1 R4B       1.293500
     24 O2          -3.8590    -2.8780     1.0080 o          1 R4B      -0.819000
     25 O3          -4.1070    -3.9270    -1.2540 o          1 R4B      -0.819000
     26 C19         -6.2420    -2.4930    -0.3020 ca         1 R4B      -0.242500
     27 C20         -7.0570    -2.8660    -1.3920 ca         1 R4B      -0.049500
     28 C21         -8.4450    -2.6460    -1.3430 ca         1 R4B      -0.122500
     29 C22         -9.0230    -2.0510    -0.2100 ca         1 R4B      -0.005900
     30 Br1        -10.9090    -1.7510    -0.1480 br         1 R4B      -0.159100
     31 C23         -8.2170    -1.6740     0.8760 ca         1 R4B      -0.122500
     32 C24         -6.8290    -1.8930     0.8320 ca         1 R4B      -0.049500
     33 N2          -1.2800     1.2590    -0.4970 ns         1 R4B      -0.505900
     34 C26         -0.7060     2.6060    -0.6940 c3         1 R4B       0.041700
     35 C30          0.4480     2.8460     0.3250 c          1 R4B       0.590100
     36 O7           0.6280     2.1340     1.3060 o          1 R4B      -0.616100
     37 C27         -1.8040     3.6870    -0.5910 c3         1 R4B      -0.105100
     38 N3           1.2670     3.9190     0.0430 ns         1 R4B      -0.498900
     39 C31          2.4460     4.3280     0.8400 c3         1 R4B       0.033700
     40 C35          2.8330     5.8050     0.5250 c          1 R4B       0.595100
     41 O10          2.2610     6.4910    -0.3090 o          1 R4B      -0.609100
     42 C32          3.6270     3.3490     0.6300 c3         1 R4B      -0.110100
     43 N4           3.8670     6.3260     1.2240 nt         1 R4B      -0.604000
     44 H1          -1.9720    -1.0500     0.0030 hc         1 R4B       0.074700
     45 H2          -1.5160    -2.9670    -1.4430 hc         1 R4B       0.105200
     46 H3          -1.7550    -2.0010    -2.8920 hc         1 R4B       0.105200
     47 H4           0.6870    -1.3440     0.2160 ha         1 R4B       0.156000
     48 H5           2.7340    -1.2020     1.2250 ha         1 R4B       0.131500
     49 H6           4.7280    -0.4060     2.4050 ha         1 R4B       0.111000
     50 H7           6.3110     1.1550    -1.3060 ha         1 R4B       0.111000
     51 H8           4.3090     0.3810    -2.4900 ha         1 R4B       0.131500
     52 H11          9.0070     0.1340     3.9700 ha         1 R4B       0.115000
     53 H12          7.0220    -0.7210     2.7610 ha         1 R4B       0.122000
     54 H13         -4.3370    -0.4170    -0.6630 hc         1 R4B       0.057200
     55 H14         -4.1070    -1.2460    -2.2000 hc         1 R4B       0.057200
     56 H16         -6.6170    -3.3250    -2.2750 ha         1 R4B       0.129500
     57 H17         -9.0690    -2.9360    -2.1850 ha         1 R4B       0.109500
     58 H18         -8.6660    -1.2110     1.7520 ha         1 R4B       0.109500
     59 H19         -6.2120    -1.5950     1.6780 ha         1 R4B       0.129500
     60 H20         -1.1330     0.8110     0.4010 hn         1 R4B       0.341500
     61 H21         -0.2570     2.6510    -1.6950 h1         1 R4B       0.081700
     62 H22         -1.3880     4.6860    -0.7710 hc         1 R4B       0.047367
     63 H23         -2.5920     3.5120    -1.3330 hc         1 R4B       0.047367
     64 H24         -2.2630     3.6810     0.4060 hc         1 R4B       0.047367
     65 H25          1.0310     4.4750    -0.7730 hn         1 R4B       0.344500
     66 H26          2.1660     4.3030     1.9010 h1         1 R4B       0.075700
     67 H27          3.9620     3.3630    -0.4140 hc         1 R4B       0.050033
     68 H28          4.4790     3.6100     1.2680 hc         1 R4B       0.050033
     69 H29          3.3290     2.3250     0.8790 hc         1 R4B       0.050033
     70 H30          4.3450     5.7690     1.9170 hn         1 R4B       0.315500
     71 H31          4.1500     7.2790     1.0480 hn         1 R4B       0.315500
     72 H9           7.0930     2.7720     0.2010 ha         1 R4B       0.133000
     73 Cl1          9.3610     4.1880     1.2270 cl         1 R4B      -0.213000
     74 H10         10.0480     2.2990     3.2940 ha         1 R4B       0.124000
@<TRIPOS>BOND
     1     1     4 2   
     2     2     3 1   
     3     2     8 2   
     4     3    15 1   
     5     4     5 1   
     6     4    33 1   
     7     5     6 1   
     8     5    22 1   
     9     5    44 1   
    10     6    15 1   
    11     6    45 1   
    12     6    46 1   
    13     7     8 1   
    14     7    15 2   
    15     7    47 1   
    16     8     9 1   
    17     9    10 ar  
    18     9    14 ar  
    19    10    11 ar  
    20    10    48 1   
    21    11    12 ar  
    22    11    49 1   
    23    12    13 ar  
    24    12    21 1   
    25    13    14 ar  
    26    13    50 1   
    27    14    51 1   
    28    16    17 ar  
    29    16    18 ar  
    30    16    73 1   
    31    17    21 ar  
    32    17    72 1   
    33    18    19 ar  
    34    18    74 1   
    35    19    20 ar  
    36    19    52 1   
    37    20    21 ar  
    38    20    53 1   
    39    22    23 1   
    40    22    54 1   
    41    22    55 1   
    42    23    24 1   
    43    23    25 1   
    44    23    26 1   
    45    26    27 ar  
    46    26    32 ar  
    47    27    28 ar  
    48    27    56 1   
    49    28    29 ar  
    50    28    57 1   
    51    29    30 1   
    52    29    31 ar  
    53    31    32 ar  
    54    31    58 1   
    55    32    59 1   
    56    33    34 1   
    57    33    60 1   
    58    34    35 1   
    59    34    37 1   
    60    34    61 1   
    61    35    36 2   
    62    35    38 1   
    63    37    62 1   
    64    37    63 1   
    65    37    64 1   
    66    38    39 1   
    67    38    65 1   
    68    39    40 1   
    69    39    42 1   
    70    39    66 1   
    71    40    41 2   
    72    40    43 1   
    73    42    67 1   
    74    42    68 1   
    75    42    69 1   
    76    43    70 1   
    77    43    71 1   
@<TRIPOS>SUBSTRUCTURE
     1 R4B         1 TEMP              0 ****  ****    0 ROOT
