@<TRIPOS>MOLECULE
R4B
   74    77     1     0     0
SMALL
bcc


@<TRIPOS>ATOM
      1 O4          -1.6840     0.9530    -2.5390 o          1 R4B      -0.623100
      2 N1           2.2490    -1.6960    -2.5970 nc         1 R4B      -0.384300
      3 O1           0.9400    -1.9720    -2.8420 os         1 R4B      -0.106100
      4 C25         -1.7040     0.5830    -1.3730 c          1 R4B       0.668100
      5 C17         -2.0540    -0.8480    -0.9920 c3         1 R4B      -0.090700
      6 C16         -1.2790    -1.8100    -1.8940 c3         1 R4B      -0.127700
      7 C14          0.9900    -1.0540    -0.8550 cd         1 R4B      -0.413600
      8 C13          2.2920    -1.1470    -1.4140 cd         1 R4B       0.385800
      9 C12          3.5590    -0.7040    -0.8290 ca         1 R4B      -0.107500
     10 C11          3.5660     0.0740     0.3260 ca         1 R4B      -0.103500
     11 C10          4.7570     0.5070     0.8820 ca         1 R4B      -0.124500
     12 C7           5.9800     0.1780     0.2980 cp         1 R4B      -0.046000
     13 C8           5.9690    -0.6020    -0.8590 ca         1 R4B      -0.124500
     14 C9           4.7810    -1.0380    -1.4150 ca         1 R4B      -0.103500
     15 C15          0.1870    -1.5880    -1.8070 cc         1 R4B       0.332000
     16 C1           9.5010     1.4470     0.6270 ca         1 R4B       0.027400
     17 C2           8.3110     1.0180     0.0640 ca         1 R4B      -0.114000
     18 C3           9.6710     1.5170     2.0010 ca         1 R4B      -0.127000
     19 C4           8.6140     1.1420     2.8180 ca         1 R4B      -0.123000
     20 C5           7.4160     0.7100     2.2720 ca         1 R4B      -0.119000
     21 C6           7.2500     0.6420     0.8890 cp         1 R4B      -0.012000
     22 C18         -3.5700    -1.0480    -1.0970 c3         1 R4B      -0.275600
     23 P1          -4.1370    -2.6310    -0.3370 p5         1 R4B       1.135700
     24 O2          -3.6920    -2.6320     1.1080 o          1 R4B      -0.819000
     25 O3          -3.7850    -3.7930    -1.2410 o          1 R4B      -0.819000
     26 C19         -5.9580    -2.4130    -0.3870 ca         1 R4B      -0.242500
     27 C20         -6.6930    -2.8350    -1.4920 ca         1 R4B      -0.067500
     28 C21         -8.0700    -2.6680    -1.5480 ca         1 R4B      -0.140500
     29 C22         -8.7160    -2.0720    -0.4750 ca         1 R4B      -0.005900
     30 BR1        -10.5920    -1.8410    -0.5340 br         1 R4B      -0.159100
     31 C23         -8.0130    -1.6450     0.6420 ca         1 R4B      -0.140500
     32 C24         -6.6360    -1.8210     0.6750 ca         1 R4B      -0.067500
     33 N2          -1.4250     1.3900    -0.3390 ns         1 R4B      -0.572900
     34 C26         -1.0020     2.7600    -0.4850 c3         1 R4B       0.041700
     35 C30         -0.0680     3.0870     0.6770 c          1 R4B       0.657100
     36 O7          -0.1460     2.4980     1.7460 o          1 R4B      -0.616100
     37 C27         -2.1780     3.7380    -0.4990 c3         1 R4B      -0.105100
     38 N3           0.7880     4.0870     0.4420 ns         1 R4B      -0.565900
     39 C31          1.6990     4.5970     1.4390 c3         1 R4B       0.033700
     40 C35          2.1030     6.0100     1.0280 c          1 R4B       0.662100
     41 O10          2.0400     6.3790    -0.1350 o          1 R4B      -0.609100
     42 C32          2.9490     3.7250     1.5830 c3         1 R4B      -0.110100
     43 N4           2.5630     6.7690     2.0260 nt         1 R4B      -0.671000
     44 H1          -1.7610    -1.0270     0.0480 hc         1 R4B       0.074700
     45 H2          -1.5150    -2.8390    -1.6160 hc         1 R4B       0.105200
     46 H3          -1.6040    -1.6890    -2.9300 hc         1 R4B       0.105200
     47 H4           0.7020    -0.6610     0.1040 ha         1 R4B       0.174000
     48 H5           2.6330     0.3590     0.7970 ha         1 R4B       0.149500
     49 H6           4.7280     1.1290     1.7680 ha         1 R4B       0.129000
     50 H7           6.9020    -0.8950    -1.3230 ha         1 R4B       0.129000
     51 H8           4.8060    -1.6530    -2.3050 ha         1 R4B       0.149500
     52 H11          8.7330     1.1830     3.8930 ha         1 R4B       0.133000
     53 H12          6.6130     0.4030     2.9300 ha         1 R4B       0.140000
     54 H13         -4.0750    -0.2330    -0.5680 hc         1 R4B       0.057200
     55 H14         -3.8890    -0.9900    -2.1410 hc         1 R4B       0.057200
     56 H16         -6.1910    -3.3070    -2.3260 ha         1 R4B       0.147500
     57 H17         -8.6220    -3.0060    -2.4150 ha         1 R4B       0.127500
     58 H18         -8.5200    -1.1840     1.4790 ha         1 R4B       0.127500
     59 H19         -6.0900    -1.4910     1.5490 ha         1 R4B       0.147500
     60 H20         -1.4730     1.0280     0.6010 hn         1 R4B       0.341500
     61 H21         -0.4550     2.8510    -1.4250 h1         1 R4B       0.081700
     62 H22         -1.8300     4.7650    -0.6160 hc         1 R4B       0.047367
     63 H23         -2.8410     3.5120    -1.3330 hc         1 R4B       0.047367
     64 H24         -2.7520     3.6710     0.4250 hc         1 R4B       0.047367
     65 H25          0.8420     4.4990    -0.4780 hn         1 R4B       0.344500
     66 H26          1.1820     4.6370     2.4000 h1         1 R4B       0.075700
     67 H27          3.5000     3.6770     0.6430 hc         1 R4B       0.050033
     68 H28          3.6130     4.1170     2.3520 hc         1 R4B       0.050033
     69 H29          2.6660     2.7130     1.8710 hc         1 R4B       0.050033
     70 H30          2.5790     6.4470     2.9790 hn         1 R4B       0.315500
     71 H31          2.9220     7.6920     1.8430 hn         1 R4B       0.315500
     72 H9           8.2020     0.9950    -1.0120 ha         1 R4B       0.151000
     73 CL1         10.8030     1.9190    -0.4160 cl         1 R4B      -0.121400
     74 H10         10.6060     1.8550     2.4260 ha         1 R4B       0.142000
@<TRIPOS>BOND
     1     1     4 2   
     2     2     3 1   
     3     2     8 2   
     4     3    15 1   
     5     4     5 1   
     6     4    33 1   
     7     5     6 1   
     8     5    22 1   
     9     5    44 1   
    10     6    15 1   
    11     6    45 1   
    12     6    46 1   
    13     7     8 1   
    14     7    15 2   
    15     7    47 1   
    16     8     9 1   
    17     9    10 ar  
    18     9    14 ar  
    19    10    11 ar  
    20    10    48 1   
    21    11    12 ar  
    22    11    49 1   
    23    12    13 ar  
    24    12    21 1   
    25    13    14 ar  
    26    13    50 1   
    27    14    51 1   
    28    16    17 ar  
    29    16    18 ar  
    30    16    73 1   
    31    17    21 ar  
    32    17    72 1   
    33    18    19 ar  
    34    18    74 1   
    35    19    20 ar  
    36    19    52 1   
    37    20    21 ar  
    38    20    53 1   
    39    22    23 1   
    40    22    54 1   
    41    22    55 1   
    42    23    24 1   
    43    23    25 1   
    44    23    26 1   
    45    26    27 ar  
    46    26    32 ar  
    47    27    28 ar  
    48    27    56 1   
    49    28    29 ar  
    50    28    57 1   
    51    29    30 1   
    52    29    31 ar  
    53    31    32 ar  
    54    31    58 1   
    55    32    59 1   
    56    33    34 1   
    57    33    60 1   
    58    34    35 1   
    59    34    37 1   
    60    34    61 1   
    61    35    36 2   
    62    35    38 1   
    63    37    62 1   
    64    37    63 1   
    65    37    64 1   
    66    38    39 1   
    67    38    65 1   
    68    39    40 1   
    69    39    42 1   
    70    39    66 1   
    71    40    41 2   
    72    40    43 1   
    73    42    67 1   
    74    42    68 1   
    75    42    69 1   
    76    43    70 1   
    77    43    71 1   
@<TRIPOS>SUBSTRUCTURE
     1 R4B         1 TEMP              0 ****  ****    0 ROOT
