@<TRIPOS>MOLECULE
R4C
   64    66     1     0     0
SMALL
No Charge or Current Charge


@<TRIPOS>ATOM
      1 O4           0.1670    -0.5720     2.4360 o          1 R4C      -0.614100
      2 N1           3.8070     2.1740     1.6680 nc         1 R4C      -0.389300
      3 O1           2.4350     2.3410     2.0850 os         1 R4C      -0.061700
      4 C25          0.1710    -0.3090     1.2410 c          1 R4C       0.598100
      5 C17         -0.5500     0.9300     0.6420 c3         1 R4C      -0.083700
      6 C16          0.1310     2.2340     1.1440 c3         1 R4C      -0.130700
      7 C14          2.4110     1.9700    -0.0990 cd         1 R4C      -0.250000
      8 C13          3.7420     1.9550     0.3630 cd         1 R4C       0.321500
      9 C12          4.9550     1.7020    -0.4490 ca         1 R4C      -0.122500
     10 C11          6.2150     1.5140     0.1680 ca         1 R4C      -0.081000
     11 C10          7.3660     1.2840    -0.6060 ca         1 R4C      -0.124500
     12 C7           7.2780     1.2460    -2.0060 ca         1 R4C      -0.113000
     13 C8           6.0370     1.4400    -2.6310 ca         1 R4C      -0.124500
     14 C9           4.8840     1.6690    -1.8600 ca         1 R4C      -0.081000
     15 C15          1.6280     2.2040     0.9850 cc         1 R4C       0.201300
     16 C18         -2.0910     0.9030     0.9040 c3         1 R4C      -0.431400
     17 P1          -3.1440     2.0940    -0.0230 p5         1 R4C       1.293500
     18 O3          -2.7410     2.0700    -1.4640 o          1 R4C      -0.822000
     19 O2          -3.0180     3.4420     0.6140 o          1 R4C      -0.822000
     20 C19         -4.8380     1.4340     0.1910 ca         1 R4C      -0.240500
     21 C20         -5.3710     0.5240    -0.7460 ca         1 R4C      -0.049000
     22 C21         -6.6680     0.0090    -0.5720 ca         1 R4C      -0.122500
     23 C22         -7.4350     0.3990     0.5370 ca         1 R4C      -0.005900
     24 Br1         -9.1980    -0.3020     0.7710 br         1 R4C      -0.161100
     25 C23         -6.9100     1.3020     1.4760 ca         1 R4C      -0.122500
     26 C24         -5.6140     1.8190     1.3050 ca         1 R4C      -0.049000
     27 N2           0.8560    -1.0770     0.3260 ns         1 R4C      -0.507900
     28 C26          1.7510    -2.2030     0.6610 c3         1 R4C       0.043700
     29 C30          2.8570    -2.3430    -0.4250 c          1 R4C       0.594100
     30 O7           2.7850    -1.8030    -1.5230 o          1 R4C      -0.618100
     31 C27          0.9410    -3.5070     0.8380 c3         1 R4C      -0.105100
     32 N3           3.9420    -3.1130    -0.0610 ns         1 R4C      -0.494900
     33 C31          5.1380    -3.3530    -0.8990 c3         1 R4C       0.036700
     34 C35          5.9180    -4.6040    -0.3900 c          1 R4C       0.593100
     35 O10          5.5980    -5.2450     0.6000 o          1 R4C      -0.611100
     36 C32          6.0290    -2.0880    -0.9720 c3         1 R4C      -0.109100
     37 N4           7.0090    -4.9720    -1.1010 nt         1 R4C      -0.605000
     38 H1          -0.4040     0.8910    -0.4450 hc         1 R4C       0.071700
     39 H2          -0.2670     3.0980     0.6000 hc         1 R4C       0.099200
     40 H3          -0.1180     2.3880     2.2010 hc         1 R4C       0.099200
     41 H4           2.0640     1.7940    -1.1080 ha         1 R4C       0.159000
     42 H5           6.3100     1.5370     1.2510 ha         1 R4C       0.129000
     43 H6           8.3260     1.1350    -0.1180 ha         1 R4C       0.109000
     44 H7           8.1690     1.0680    -2.6040 ha         1 R4C       0.104000
     45 H8           5.9670     1.4150    -3.7170 ha         1 R4C       0.109000
     46 H9           3.9380     1.8230    -2.3730 ha         1 R4C       0.129000
     47 H10         -2.4860    -0.0830     0.6330 hc         1 R4C       0.061200
     48 H11         -2.3010     1.0520     1.9690 hc         1 R4C       0.061200
     49 H13         -4.7810     0.2140    -1.6070 ha         1 R4C       0.129500
     50 H14         -7.0740    -0.6910    -1.2970 ha         1 R4C       0.109000
     51 H15         -7.5050     1.6020     2.3350 ha         1 R4C       0.109000
     52 H16         -5.2130     2.5160     2.0390 ha         1 R4C       0.129500
     53 H17          0.8170    -0.7790    -0.6430 hn         1 R4C       0.339500
     54 H18          2.2610    -1.9740     1.6060 h1         1 R4C       0.080700
     55 H19          0.1860    -3.3910     1.6240 hc         1 R4C       0.046367
     56 H20          0.4290    -3.7750    -0.0950 hc         1 R4C       0.046367
     57 H21          1.5980    -4.3390     1.1200 hc         1 R4C       0.046367
     58 H22          3.9100    -3.5490     0.8550 hn         1 R4C       0.343500
     59 H23          4.8010    -3.5930    -1.9160 h1         1 R4C       0.073700
     60 H24          6.8850    -2.2430    -1.6390 hc         1 R4C       0.051700
     61 H25          5.4600    -1.2350    -1.3580 hc         1 R4C       0.051700
     62 H26          6.4100    -1.8240     0.0210 hc         1 R4C       0.051700
     63 H27          7.2810    -4.4510    -1.9210 hn         1 R4C       0.314000
     64 H28          7.5430    -5.7750    -0.8030 hn         1 R4C       0.314000
@<TRIPOS>BOND
     1     1     4 2   
     2     2     3 1   
     3     2     8 2   
     4     3    15 1   
     5     4     5 1   
     6     4    27 1   
     7     5     6 1   
     8     5    16 1   
     9     5    38 1   
    10     6    15 1   
    11     6    39 1   
    12     6    40 1   
    13     7     8 1   
    14     7    15 2   
    15     7    41 1   
    16     8     9 1   
    17     9    10 ar  
    18     9    14 ar  
    19    10    11 ar  
    20    10    42 1   
    21    11    12 ar  
    22    11    43 1   
    23    12    13 ar  
    24    12    44 1   
    25    13    14 ar  
    26    13    45 1   
    27    14    46 1   
    28    16    17 1   
    29    16    47 1   
    30    16    48 1   
    31    17    18 1   
    32    17    19 1   
    33    17    20 1   
    34    20    21 ar  
    35    20    26 ar  
    36    21    22 ar  
    37    21    49 1   
    38    22    23 ar  
    39    22    50 1   
    40    23    24 1   
    41    23    25 ar  
    42    25    26 ar  
    43    25    51 1   
    44    26    52 1   
    45    27    28 1   
    46    27    53 1   
    47    28    29 1   
    48    28    31 1   
    49    28    54 1   
    50    29    30 2   
    51    29    32 1   
    52    31    55 1   
    53    31    56 1   
    54    31    57 1   
    55    32    33 1   
    56    32    58 1   
    57    33    34 1   
    58    33    36 1   
    59    33    59 1   
    60    34    35 2   
    61    34    37 1   
    62    36    60 1   
    63    36    61 1   
    64    36    62 1   
    65    37    63 1   
    66    37    64 1   
@<TRIPOS>SUBSTRUCTURE
     1 R4C         1 TEMP              0 ****  ****    0 ROOT
