@<TRIPOS>MOLECULE
R4C
   64    66     1     0     0
SMALL
bcc


@<TRIPOS>ATOM
      1 O4          -0.1710    -0.9890     2.1390 o          1 R4C      -0.614100
      2 N1           3.5820     1.2030     1.4320 nc         1 R4C      -0.389300
      3 O1           2.2820     1.3150     1.8110 os         1 R4C      -0.106100
      4 C25          0.0260    -0.6120     0.9920 c          1 R4C       0.665100
      5 C17         -0.6460     0.6270     0.4200 c3         1 R4C      -0.083700
      6 C16          0.0770     1.8680     0.9930 c3         1 R4C      -0.130700
      7 C14          2.3500     1.9860    -0.2720 cd         1 R4C      -0.398600
      8 C13          3.6370     1.5990     0.1890 cd         1 R4C       0.386800
      9 C12          4.9060     1.6090    -0.5420 ca         1 R4C      -0.122500
     10 C11          6.1230     1.5870     0.1400 ca         1 R4C      -0.099000
     11 C10          7.3180     1.5680    -0.5600 ca         1 R4C      -0.142500
     12 C7           7.3140     1.5710    -1.9500 ca         1 R4C      -0.131000
     13 C8           6.1070     1.5980    -2.6340 ca         1 R4C      -0.142500
     14 C9           4.9090     1.6160    -1.9350 ca         1 R4C      -0.099000
     15 C15          1.5450     1.7790     0.7960 cc         1 R4C       0.311000
     16 C18         -2.1410     0.6320     0.7310 c3         1 R4C      -0.273600
     17 P1          -3.0610     1.9700    -0.1400 p5         1 R4C       1.135700
     18 O3          -2.8450     1.7960    -1.6270 o          1 R4C      -0.822000
     19 O2          -2.7770     3.3040     0.5170 o          1 R4C      -0.822000
     20 C19         -4.7960     1.5110     0.2490 ca         1 R4C      -0.240500
     21 C20         -5.5080     0.6480    -0.5790 ca         1 R4C      -0.067000
     22 C21         -6.8170     0.2870    -0.2890 ca         1 R4C      -0.140500
     23 C22         -7.4170     0.8050     0.8500 ca         1 R4C      -0.005900
     24 BR1         -9.2000     0.3250     1.2580 br         1 R4C      -0.161100
     25 C23         -6.7360     1.6710     1.6920 ca         1 R4C      -0.140500
     26 C24         -5.4280     2.0180     1.3810 ca         1 R4C      -0.067000
     27 N2           0.8880    -1.2140     0.1600 ns         1 R4C      -0.574900
     28 C26          1.7530    -2.2960     0.5560 c3         1 R4C       0.043700
     29 C30          2.9400    -2.3200    -0.4030 c          1 R4C       0.661100
     30 O7           2.8550    -1.8750    -1.5390 o          1 R4C      -0.618100
     31 C27          1.0420    -3.6510     0.5230 c3         1 R4C      -0.105100
     32 N3           4.0330    -2.9150     0.0840 ns         1 R4C      -0.561900
     33 C31          5.2260    -3.1480    -0.6930 c3         1 R4C       0.036700
     34 C35          5.9770    -4.3180    -0.0640 c          1 R4C       0.660100
     35 O10          5.8190    -4.6220     1.1100 o          1 R4C      -0.611100
     36 C32          6.1360    -1.9190    -0.7490 c3         1 R4C      -0.109100
     37 N4           6.8320    -4.9370    -0.8820 nt         1 R4C      -0.672000
     38 H1          -0.5170     0.6360    -0.6660 hc         1 R4C       0.071700
     39 H2          -0.3020     2.7620     0.5000 hc         1 R4C       0.099200
     40 H3          -0.1520     1.9680     2.0560 hc         1 R4C       0.099200
     41 H4           2.0640     2.3570    -1.2410 ha         1 R4C       0.177000
     42 H5           6.1360     1.5890     1.2220 ha         1 R4C       0.147000
     43 H6           8.2550     1.5510    -0.0190 ha         1 R4C       0.127000
     44 H7           8.2480     1.5560    -2.4960 ha         1 R4C       0.122000
     45 H8           6.0960     1.6010    -3.7160 ha         1 R4C       0.127000
     46 H9           3.9770     1.6230    -2.4840 ha         1 R4C       0.147000
     47 H10         -2.5710    -0.3230     0.4130 hc         1 R4C       0.061200
     48 H11         -2.3050     0.7080     1.8080 hc         1 R4C       0.061200
     49 H13         -5.0430     0.2510    -1.4720 ha         1 R4C       0.147500
     50 H14         -7.3540    -0.3830    -0.9470 ha         1 R4C       0.127000
     51 H15         -7.2090     2.0770     2.5770 ha         1 R4C       0.127000
     52 H16         -4.8990     2.7010     2.0340 ha         1 R4C       0.147500
     53 H17          1.0100    -0.8580    -0.7760 hn         1 R4C       0.339500
     54 H18          2.1110    -2.1070     1.5710 h1         1 R4C       0.080700
     55 H19          0.1760    -3.6340     1.1830 hc         1 R4C       0.046367
     56 H20          0.7040    -3.8880    -0.4860 hc         1 R4C       0.046367
     57 H21          1.7040    -4.4490     0.8610 hc         1 R4C       0.046367
     58 H22          4.0500    -3.2170     1.0480 hn         1 R4C       0.343500
     59 H23          4.9330    -3.4200    -1.7100 h1         1 R4C       0.073700
     60 H24          7.0350    -2.1240    -1.3290 hc         1 R4C       0.051700
     61 H25          5.6170    -1.0860    -1.2180 hc         1 R4C       0.051700
     62 H26          6.4350    -1.6100     0.2530 hc         1 R4C       0.051700
     63 H27          6.9250    -4.6820    -1.8510 hn         1 R4C       0.314000
     64 H28          7.4200    -5.6800    -0.5400 hn         1 R4C       0.314000
@<TRIPOS>BOND
     1     1     4 2   
     2     2     3 1   
     3     2     8 2   
     4     3    15 1   
     5     4     5 1   
     6     4    27 1   
     7     5     6 1   
     8     5    16 1   
     9     5    38 1   
    10     6    15 1   
    11     6    39 1   
    12     6    40 1   
    13     7     8 1   
    14     7    15 2   
    15     7    41 1   
    16     8     9 1   
    17     9    10 ar  
    18     9    14 ar  
    19    10    11 ar  
    20    10    42 1   
    21    11    12 ar  
    22    11    43 1   
    23    12    13 ar  
    24    12    44 1   
    25    13    14 ar  
    26    13    45 1   
    27    14    46 1   
    28    16    17 1   
    29    16    47 1   
    30    16    48 1   
    31    17    18 1   
    32    17    19 1   
    33    17    20 1   
    34    20    21 ar  
    35    20    26 ar  
    36    21    22 ar  
    37    21    49 1   
    38    22    23 ar  
    39    22    50 1   
    40    23    24 1   
    41    23    25 ar  
    42    25    26 ar  
    43    25    51 1   
    44    26    52 1   
    45    27    28 1   
    46    27    53 1   
    47    28    29 1   
    48    28    31 1   
    49    28    54 1   
    50    29    30 2   
    51    29    32 1   
    52    31    55 1   
    53    31    56 1   
    54    31    57 1   
    55    32    33 1   
    56    32    58 1   
    57    33    34 1   
    58    33    36 1   
    59    33    59 1   
    60    34    35 2   
    61    34    37 1   
    62    36    60 1   
    63    36    61 1   
    64    36    62 1   
    65    37    63 1   
    66    37    64 1   
@<TRIPOS>SUBSTRUCTURE
     1 R4C         1 TEMP              0 ****  ****    0 ROOT
