@<TRIPOS>MOLECULE
R4D
   57    60     1     0     0
SMALL
abcg2


@<TRIPOS>ATOM
      1 C1          82.2400     0.4470    62.7050 c3         1 R4D      -0.082100
      2 C2          81.2080     1.1270    63.6080 c3         1 R4D      -0.129700
      3 C3          81.1060     2.6350    63.2910 c3         1 R4D      -0.027100
      4 C4          80.0350     3.3410    64.0800 ca         1 R4D      -0.081300
      5 C5          78.7090     3.3330    63.6410 ca         1 R4D      -0.105000
      6 C6          77.7120     3.9740    64.3660 ca         1 R4D      -0.115000
      7 C7          78.0260     4.6360    65.5500 ca         1 R4D      -0.128000
      8 C8          79.3390     4.6360    66.0080 ca         1 R4D      -0.115000
      9 C15         78.7270     0.7190    68.0400 c6         1 R4D       0.171000
     10 C17         80.1940     1.1200    68.2360 c6         1 R4D      -0.102900
     11 C18         81.1180     0.2800    67.3610 c6         1 R4D       0.107000
     12 C19         77.8530     1.6690    68.8730 c3         1 R4D       0.064000
     13 C21         75.8950     2.7220    67.8460 cc         1 R4D       0.498800
     14 N22         74.6600     2.8800    67.5260 nd         1 R4D      -0.615100
     15 C23         73.7700     1.9050    67.9370 ca         1 R4D       0.179400
     16 C24         72.4090     2.0430    67.6260 ca         1 R4D      -0.103000
     17 C27         73.2670    -0.1920    69.0740 ca         1 R4D      -0.037000
     18 C9          80.3340     3.9940    65.2770 ca         1 R4D      -0.105000
     19 C10         81.6080     0.9500    65.0700 c          1 R4D       0.605100
     20 O11         82.7360     1.3210    65.4200 o          1 R4D      -0.626100
     21 N12         80.7390     0.4050    65.9520 n          1 R4D      -0.408800
     22 C13         79.3610    -0.0150    65.7020 c6         1 R4D       0.107000
     23 C14         78.3810     0.7950    66.5480 c6         1 R4D      -0.102900
     24 N20         76.4160     1.6620    68.5440 n          1 R4D      -0.337300
     25 C25         71.5050     1.0840    68.0370 ca         1 R4D      -0.070000
     26 C26         71.9320    -0.0370    68.7650 ca         1 R4D      -0.131000
     27 C28         74.1970     0.7750    68.6650 ca         1 R4D      -0.199600
     28 C29         75.6090     0.6190    68.9720 c          1 R4D       0.575600
     29 O30         76.0920    -0.3530    69.5600 o          1 R4D      -0.561000
     30 H1          82.3030    -0.6220    62.9180 hc         1 R4D       0.044367
     31 H2          81.9530     0.5700    61.6590 hc         1 R4D       0.044367
     32 H3          83.2280     0.8850    62.8480 hc         1 R4D       0.044367
     33 H4          80.2380     0.6840    63.4040 hc         1 R4D       0.053700
     34 H5          82.0770     3.0950    63.4830 hc         1 R4D       0.061200
     35 H6          80.9000     2.7330    62.2230 hc         1 R4D       0.061200
     36 H7          78.4600     2.8250    62.7160 ha         1 R4D       0.119000
     37 H8          76.6900     3.9610    64.0070 ha         1 R4D       0.114000
     38 H9          77.2540     5.1500    66.1080 ha         1 R4D       0.112000
     39 H10         79.5910     5.1390    66.9330 ha         1 R4D       0.114000
     40 H11         80.4660     0.9940    69.2860 hc         1 R4D       0.054950
     41 H12         80.3180     2.1730    67.9750 hc         1 R4D       0.054950
     42 H13         81.0510    -0.7730    67.6440 h1         1 R4D       0.064450
     43 H14         82.1480     0.6020    67.4670 h1         1 R4D       0.064450
     44 H15         77.9610     1.4270    69.9290 h1         1 R4D       0.071200
     45 H16         78.1940     2.6900    68.7180 h1         1 R4D       0.071200
     46 H18         72.0910     2.9120    67.0660 ha         1 R4D       0.135000
     47 H19         73.6150    -1.0510    69.6300 ha         1 R4D       0.138000
     48 H20         81.3550     4.0010    65.6370 ha         1 R4D       0.119000
     49 H21         79.1100     0.0880    64.6540 h1         1 R4D       0.064450
     50 H22         79.2780    -1.0740    65.9610 h1         1 R4D       0.064450
     51 H23         78.4000     1.8370    66.2230 hc         1 R4D       0.054950
     52 H24         77.3730     0.4110    66.3820 hc         1 R4D       0.054950
     53 H26         70.4560     1.1980    67.7960 ha         1 R4D       0.120000
     54 H27         71.2120    -0.7810    69.0800 ha         1 R4D       0.123000
     55 O16         78.6000    -0.6320    68.5060 oh         1 R4D      -0.681000
     56 H17         76.6230     3.4680    67.5560 h5         1 R4D       0.053800
     57 H25         77.7150    -0.7230    68.9080 ho         1 R4D       0.480000
@<TRIPOS>BOND
     1     1     2 1   
     2     1    30 1   
     3     1    31 1   
     4     1    32 1   
     5     2     3 1   
     6     2    19 1   
     7     2    33 1   
     8     3     4 1   
     9     3    34 1   
    10     3    35 1   
    11     4     5 ar  
    12     4    18 ar  
    13     5     6 ar  
    14     5    36 1   
    15     6     7 ar  
    16     6    37 1   
    17     7     8 ar  
    18     7    38 1   
    19     8    18 ar  
    20     8    39 1   
    21     9    10 1   
    22     9    12 1   
    23     9    23 1   
    24     9    55 1   
    25    10    11 1   
    26    10    40 1   
    27    10    41 1   
    28    11    21 1   
    29    11    42 1   
    30    11    43 1   
    31    12    24 1   
    32    12    44 1   
    33    12    45 1   
    34    13    14 2   
    35    13    24 1   
    36    13    56 1   
    37    14    15 1   
    38    15    16 ar  
    39    15    27 ar  
    40    16    25 ar  
    41    16    46 1   
    42    17    26 ar  
    43    17    27 ar  
    44    17    47 1   
    45    18    48 1   
    46    19    20 2   
    47    19    21 1   
    48    21    22 1   
    49    22    23 1   
    50    22    49 1   
    51    22    50 1   
    52    23    51 1   
    53    23    52 1   
    54    24    28 1   
    55    25    26 ar  
    56    25    53 1   
    57    26    54 1   
    58    27    28 1   
    59    28    29 2   
    60    55    57 1   
@<TRIPOS>SUBSTRUCTURE
     1 R4D         1 TEMP              0 ****  ****    0 ROOT
