@<TRIPOS>MOLECULE
R4D
   57    60     1     0     0
SMALL
No Charge or Current Charge


@<TRIPOS>ATOM
      1 C1          82.7920     0.8020    62.8710 c3         1 R4D      -0.082100
      2 C2          81.5490     1.3230    63.6340 c3         1 R4D      -0.129700
      3 C3          81.2850     2.8190    63.3220 c3         1 R4D      -0.027100
      4 C4          79.9920     3.3450    63.9340 ca         1 R4D      -0.081300
      5 C5          78.7480     3.0120    63.3610 ca         1 R4D      -0.105000
      6 C6          77.5560     3.5110    63.9140 ca         1 R4D      -0.115000
      7 C7          77.5990     4.3520    65.0380 ca         1 R4D      -0.128000
      8 C8          78.8350     4.6880    65.6150 ca         1 R4D      -0.115000
      9 C15         78.6980     0.5420    67.9730 c6         1 R4D       0.171000
     10 C17         80.2180     0.6310    68.2800 c6         1 R4D      -0.102900
     11 C18         81.0610    -0.1690    67.2580 c6         1 R4D       0.107000
     12 C19         77.9040     1.4760    68.9480 c3         1 R4D       0.064000
     13 C21         75.9600     2.7160    67.9950 cc         1 R4D       0.498800
     14 N22         74.6800     2.9820    67.7220 nd         1 R4D      -0.615100
     15 C23         73.7680     2.0260    68.1890 ca         1 R4D       0.179400
     16 C24         72.4030     2.2540    67.9330 ca         1 R4D      -0.103000
     17 C27         73.1640    -0.0490    69.3320 ca         1 R4D      -0.037000
     18 C9          80.0280     4.1840    65.0660 ca         1 R4D      -0.105000
     19 C10         81.7110     1.0950    65.1620 c          1 R4D       0.605100
     20 O11         82.6810     1.5650    65.7470 o          1 R4D      -0.626100
     21 N12         80.7880     0.2810    65.8670 n          1 R4D      -0.408800
     22 C13         79.3480     0.1400    65.5080 c6         1 R4D       0.107000
     23 C14         78.4500     0.9310    66.4900 c6         1 R4D      -0.102900
     24 N20         76.4470     1.6060    68.6730 n          1 R4D      -0.337300
     25 C25         71.4240     1.3450    68.3690 ca         1 R4D      -0.070000
     26 C26         71.8060     0.1920    69.0700 ca         1 R4D      -0.131000
     27 C28         74.1440     0.8690    68.8910 ca         1 R4D      -0.199600
     28 C29         75.5820     0.6310    69.1530 c          1 R4D       0.575600
     29 O30         75.9930    -0.3750    69.7200 o          1 R4D      -0.561000
     30 H1          82.9630    -0.2580    63.0920 hc         1 R4D       0.044367
     31 H2          82.6540     0.9040    61.7880 hc         1 R4D       0.044367
     32 H3          83.6930     1.3600    63.1540 hc         1 R4D       0.044367
     33 H4          80.7020     0.7500    63.2530 hc         1 R4D       0.053700
     34 H5          82.1390     3.4170    63.6630 hc         1 R4D       0.061200
     35 H6          81.2460     2.9540    62.2330 hc         1 R4D       0.061200
     36 H7          78.7070     2.3690    62.4850 ha         1 R4D       0.119000
     37 H8          76.5990     3.2500    63.4660 ha         1 R4D       0.114000
     38 H9          76.6760     4.7440    65.4600 ha         1 R4D       0.112000
     39 H10         78.8710     5.3390    66.4850 ha         1 R4D       0.114000
     40 H11         80.4240     0.2640    69.2950 hc         1 R4D       0.054950
     41 H12         80.5420     1.6810    68.2580 hc         1 R4D       0.054950
     42 H13         80.8190    -1.2380    67.3410 h1         1 R4D       0.064450
     43 H14         82.1280    -0.0680    67.5010 h1         1 R4D       0.064450
     44 H15         78.0520     1.1280    69.9790 h1         1 R4D       0.071200
     45 H16         78.3550     2.4760    68.8980 h1         1 R4D       0.071200
     46 H18         72.1010     3.1460    67.3910 ha         1 R4D       0.135000
     47 H19         73.4530    -0.9470    69.8760 ha         1 R4D       0.138000
     48 H20         80.9810     4.4500    65.5190 ha         1 R4D       0.119000
     49 H21         79.1320     0.4890    64.4940 h1         1 R4D       0.064450
     50 H22         79.0760    -0.9250    65.5420 h1         1 R4D       0.064450
     51 H23         78.6470     2.0020    66.3610 hc         1 R4D       0.054950
     52 H24         77.3980     0.7750    66.2180 hc         1 R4D       0.054950
     53 H26         70.3730     1.5360    68.1630 ha         1 R4D       0.120000
     54 H27         71.0530    -0.5160    69.4090 ha         1 R4D       0.123000
     55 O16         78.2560    -0.8050    68.1890 oh         1 R4D      -0.681000
     56 H17         76.7270     3.4110    67.6750 h5         1 R4D       0.053800
     57 H25         77.4570    -0.7500    68.7730 ho         1 R4D       0.480000
@<TRIPOS>BOND
     1     1     2 1   
     2     1    30 1   
     3     1    31 1   
     4     1    32 1   
     5     2     3 1   
     6     2    19 1   
     7     2    33 1   
     8     3     4 1   
     9     3    34 1   
    10     3    35 1   
    11     4     5 ar  
    12     4    18 ar  
    13     5     6 ar  
    14     5    36 1   
    15     6     7 ar  
    16     6    37 1   
    17     7     8 ar  
    18     7    38 1   
    19     8    18 ar  
    20     8    39 1   
    21     9    10 1   
    22     9    12 1   
    23     9    23 1   
    24     9    55 1   
    25    10    11 1   
    26    10    40 1   
    27    10    41 1   
    28    11    21 1   
    29    11    42 1   
    30    11    43 1   
    31    12    24 1   
    32    12    44 1   
    33    12    45 1   
    34    13    14 2   
    35    13    24 1   
    36    13    56 1   
    37    14    15 1   
    38    15    16 ar  
    39    15    27 ar  
    40    16    25 ar  
    41    16    46 1   
    42    17    26 ar  
    43    17    27 ar  
    44    17    47 1   
    45    18    48 1   
    46    19    20 2   
    47    19    21 1   
    48    21    22 1   
    49    22    23 1   
    50    22    49 1   
    51    22    50 1   
    52    23    51 1   
    53    23    52 1   
    54    24    28 1   
    55    25    26 ar  
    56    25    53 1   
    57    26    54 1   
    58    27    28 1   
    59    28    29 2   
    60    55    57 1   
@<TRIPOS>SUBSTRUCTURE
     1 R4D         1 TEMP              0 ****  ****    0 ROOT
