@<TRIPOS>MOLECULE
R4E
   35    36     1     0     0
SMALL
bcc


@<TRIPOS>ATOM
      1 CAA         -3.4290     0.9850    -0.6050 ca         1 R4E      -0.106000
      2 CAB         -4.3750    -0.0140    -0.6190 ca         1 R4E      -0.112000
      3 CAC         -4.0380    -1.3150    -0.2510 ca         1 R4E      -0.174000
      4 CAD         -2.7500    -1.6450     0.1490 ca         1 R4E       0.135600
      5 CAE         -1.7640    -0.6220     0.1860 ca         1 R4E      -0.030800
      6 CAF         -2.1240     0.6810    -0.2040 ca         1 R4E      -0.133600
      7 CAG         -1.1260     1.7520    -0.1870 c          1 R4E       0.712100
      8 CAH         -0.4200    -0.8770     0.6140 cc         1 R4E      -0.199200
      9 CAI          0.4940     0.1160     0.6250 cd         1 R4E       0.052400
     10 NAJ          0.1220     1.3760     0.2290 ns         1 R4E      -0.450100
     11 OAK         -1.3550     2.9120    -0.5100 o          1 R4E      -0.635500
     12 CAL          1.9240    -0.0660     1.0180 c3         1 R4E      -0.049200
     13 NAM         -2.4460    -2.9270     0.5610 nv         1 R4E      -0.815200
     14 CAN          2.8970     0.0990    -0.1530 c3         1 R4E      -0.075400
     15 CAO          4.3330    -0.2080     0.2510 c3         1 R4E      -0.077400
     16 CAP          5.3230    -0.0460    -0.8950 c3         1 R4E      -0.075400
     17 CAQ          6.7500    -0.3920    -0.4940 c3         1 R4E      -0.089100
     18 HAA         -3.6840     1.9940    -0.8980 ha         1 R4E       0.156000
     19 HAB         -5.3910     0.2030    -0.9250 ha         1 R4E       0.134000
     20 HAC         -4.7950    -2.0900    -0.2780 ha         1 R4E       0.129000
     21 HAH         -0.1070    -1.8590     0.9400 ha         1 R4E       0.141000
     22 HNAJ         0.8160     2.1110     0.2550 hn         1 R4E       0.323500
     23 HAL          2.1820     0.6450     1.8100 hc         1 R4E       0.059200
     24 HALA         2.0350    -1.0640     1.4440 hc         1 R4E       0.059200
     25 HNAM        -3.1270    -3.6210     0.2970 hn         1 R4E       0.388300
     26 HNAA        -1.5140    -3.2540     0.3560 hn         1 R4E       0.388300
     27 HAN          2.5940    -0.5670    -0.9670 hc         1 R4E       0.045200
     28 HANA         2.8410     1.1170    -0.5500 hc         1 R4E       0.045200
     29 HAO          4.6270     0.4440     1.0810 hc         1 R4E       0.038700
     30 HAOA         4.3880    -1.2320     0.6360 hc         1 R4E       0.038700
     31 HAP          5.0130    -0.6780    -1.7330 hc         1 R4E       0.038700
     32 HAPA         5.2840     0.9840    -1.2640 hc         1 R4E       0.038700
     33 HAQ          7.4430    -0.2570    -1.3260 hc         1 R4E       0.033033
     34 HAQA         7.0930     0.2390     0.3270 hc         1 R4E       0.033033
     35 HAQB         6.8270    -1.4300    -0.1650 hc         1 R4E       0.033033
@<TRIPOS>BOND
     1     1     2 ar  
     2     1     6 ar  
     3     1    18 1   
     4     2     3 ar  
     5     2    19 1   
     6     3     4 ar  
     7     3    20 1   
     8     4     5 ar  
     9     4    13 1   
    10     5     6 ar  
    11     5     8 1   
    12     6     7 1   
    13     7    10 1   
    14     7    11 2   
    15     8     9 2   
    16     8    21 1   
    17     9    10 1   
    18     9    12 1   
    19    10    22 1   
    20    12    14 1   
    21    12    23 1   
    22    12    24 1   
    23    13    25 1   
    24    13    26 1   
    25    14    15 1   
    26    14    27 1   
    27    14    28 1   
    28    15    16 1   
    29    15    29 1   
    30    15    30 1   
    31    16    17 1   
    32    16    31 1   
    33    16    32 1   
    34    17    33 1   
    35    17    34 1   
    36    17    35 1   
@<TRIPOS>SUBSTRUCTURE
     1 R4E         1 TEMP              0 ****  ****    0 ROOT
