@<TRIPOS>MOLECULE
R4E
   35    36     1     0     0
SMALL
No Charge or Current Charge


@<TRIPOS>ATOM
      1 CAA         -3.4930     1.0140    -0.5340 ca         1 R4E      -0.088000
      2 CAB         -4.4420    -0.0130    -0.6380 ca         1 R4E      -0.094000
      3 CAC         -4.0740    -1.3360    -0.3500 ca         1 R4E      -0.156000
      4 CAD         -2.7620    -1.6430     0.0430 ca         1 R4E       0.274000
      5 CAE         -1.7930    -0.6070     0.1560 ca         1 R4E      -0.030800
      6 CAF         -2.1690     0.7250    -0.1380 ca         1 R4E      -0.133600
      7 CAG         -1.1530     1.8270    -0.0280 c          1 R4E       0.569600
      8 CAH         -0.4070    -0.8910     0.5740 cc         1 R4E      -0.249200
      9 CAI          0.4930     0.1520     0.6600 cd         1 R4E       0.052400
     10 NAJ          0.1000     1.4400     0.3650 ns         1 R4E      -0.383100
     11 OAK         -1.4030     3.0000    -0.2670 o          1 R4E      -0.560000
     12 CAL          1.9380     0.0090     1.0730 c3         1 R4E      -0.049200
     13 NAM         -2.4600    -2.9600     0.3060 nv         1 R4E      -1.064000
     14 CAN          2.9010    -0.0120    -0.1350 c3         1 R4E      -0.075400
     15 CAO          4.3820    -0.1770     0.2720 c3         1 R4E      -0.077400
     16 CAP          5.3420    -0.1980    -0.9370 c3         1 R4E      -0.075400
     17 CAQ          6.8190    -0.3640    -0.5310 c3         1 R4E      -0.089100
     18 HAA         -3.7890     2.0370    -0.7610 ha         1 R4E       0.138000
     19 HAB         -5.4610     0.2160    -0.9420 ha         1 R4E       0.116000
     20 HAC         -4.8170    -2.1250    -0.4350 ha         1 R4E       0.111000
     21 HAH         -0.0710    -1.8930     0.8190 ha         1 R4E       0.191000
     22 HNAJ         0.7680     2.1970     0.4310 hn         1 R4E       0.323500
     23 HAL          2.2210     0.8260     1.7480 hc         1 R4E       0.059200
     24 HALA         2.0690    -0.9160     1.6480 hc         1 R4E       0.059200
     25 HNAM        -3.1360    -3.6860     0.0780 hn         1 R4E       0.443500
     26 HNAA        -1.4910    -3.2450     0.4170 hn         1 R4E       0.443500
     27 HAN          2.6160    -0.8340    -0.8040 hc         1 R4E       0.045200
     28 HANA         2.7860     0.9180    -0.7060 hc         1 R4E       0.045200
     29 HAO          4.6650     0.6440     0.9420 hc         1 R4E       0.038700
     30 HAOA         4.4980    -1.1090     0.8400 hc         1 R4E       0.038700
     31 HAP          5.0630    -1.0200    -1.6090 hc         1 R4E       0.038700
     32 HAPA         5.2310     0.7330    -1.5070 hc         1 R4E       0.038700
     33 HAQ          7.4610    -0.3730    -1.4210 hc         1 R4E       0.033033
     34 HAQA         7.1390     0.4630     0.1140 hc         1 R4E       0.033033
     35 HAQB         6.9700    -1.3050     0.0110 hc         1 R4E       0.033033
@<TRIPOS>BOND
     1     1     2 ar  
     2     1     6 ar  
     3     1    18 1   
     4     2     3 ar  
     5     2    19 1   
     6     3     4 ar  
     7     3    20 1   
     8     4     5 ar  
     9     4    13 1   
    10     5     6 ar  
    11     5     8 1   
    12     6     7 1   
    13     7    10 1   
    14     7    11 2   
    15     8     9 2   
    16     8    21 1   
    17     9    10 1   
    18     9    12 1   
    19    10    22 1   
    20    12    14 1   
    21    12    23 1   
    22    12    24 1   
    23    13    25 1   
    24    13    26 1   
    25    14    15 1   
    26    14    27 1   
    27    14    28 1   
    28    15    16 1   
    29    15    29 1   
    30    15    30 1   
    31    16    17 1   
    32    16    31 1   
    33    16    32 1   
    34    17    33 1   
    35    17    34 1   
    36    17    35 1   
@<TRIPOS>SUBSTRUCTURE
     1 R4E         1 TEMP              0 ****  ****    0 ROOT
