@<TRIPOS>MOLECULE
R4F
   29    30     1     0     0
SMALL
No Charge or Current Charge


@<TRIPOS>ATOM
      1 C13         -4.4380    17.3320    -7.0800 ca         1 R4F      -0.124000
      2 C15         -3.2400    17.1980    -9.2180 ca         1 R4F      -0.098000
      3 O01         -2.3660    16.1490   -11.9270 o          1 R4F      -0.525100
      4 C02         -3.5150    15.7410   -12.0670 c          1 R4F       0.617100
      5 C03         -3.9770    15.2180   -13.4570 c3         1 R4F      -0.136700
      6 C04         -3.5770    13.7310   -13.6330 c3         1 R4F      -0.087100
      7 C05         -3.4380    16.0870   -14.6230 c3         1 R4F      -0.087100
      8 N06         -4.4300    15.7140   -10.9720 n          1 R4F      -0.097600
      9 C07         -5.6320    14.9860   -10.9160 cc         1 R4F      -0.064400
     10 C08         -6.2070    15.1440    -9.6710 cd         1 R4F      -0.230400
     11 C09         -7.4820    14.5060    -9.2540 c          1 R4F       0.601100
     12 O10         -7.9950    14.6350    -8.1470 o          1 R4F      -0.526100
     13 C11         -5.3340    16.0100    -8.8850 ca         1 R4F      -0.059800
     14 C12         -5.4530    16.4860    -7.5710 ca         1 R4F      -0.061000
     15 C14         -3.3410    17.6870    -7.8980 ca         1 R4F      -0.099000
     16 C16         -4.2540    16.3450    -9.6900 ca         1 R4F      -0.092000
     17 H1          -4.5030    17.7190    -6.0650 ha         1 R4F       0.116000
     18 H2          -2.3960    17.4860    -9.8380 ha         1 R4F       0.142000
     19 H3          -5.0700    15.2460   -13.5010 hc         1 R4F       0.062700
     20 H4          -3.9940    13.1150   -12.8270 hc         1 R4F       0.048867
     21 H5          -3.9500    13.3390   -14.5870 hc         1 R4F       0.048867
     22 H6          -2.4860    13.6160   -13.6200 hc         1 R4F       0.048867
     23 H7          -3.7410    17.1330   -14.4960 hc         1 R4F       0.048867
     24 H8          -2.3430    16.0500   -14.6720 hc         1 R4F       0.048867
     25 H9          -3.8340    15.7350   -15.5840 hc         1 R4F       0.048867
     26 H10         -5.9470    14.3970   -11.7700 h4         1 R4F       0.218000
     27 H11         -7.9680    13.8770   -10.0320 h4         1 R4F      -0.016800
     28 H12         -6.3010    16.2180    -6.9460 ha         1 R4F       0.137000
     29 H13         -2.5680    18.3460    -7.5080 ha         1 R4F       0.115000
@<TRIPOS>BOND
     1     1    14 ar  
     2     1    15 ar  
     3     1    17 1   
     4     2    15 ar  
     5     2    16 ar  
     6     2    18 1   
     7     3     4 2   
     8     4     5 1   
     9     4     8 1   
    10     5     6 1   
    11     5     7 1   
    12     5    19 1   
    13     6    20 1   
    14     6    21 1   
    15     6    22 1   
    16     7    23 1   
    17     7    24 1   
    18     7    25 1   
    19     8     9 1   
    20     8    16 1   
    21     9    10 2   
    22     9    26 1   
    23    10    11 1   
    24    10    13 1   
    25    11    12 2   
    26    11    27 1   
    27    13    14 ar  
    28    13    16 ar  
    29    14    28 1   
    30    15    29 1   
@<TRIPOS>SUBSTRUCTURE
     1 R4F         1 TEMP              0 ****  ****    0 ROOT
