@<TRIPOS>MOLECULE
R4F
   29    30     1     0     0
SMALL
abcg2


@<TRIPOS>ATOM
      1 C13         -4.3250    17.1340    -7.0920 ca         1 R4F      -0.124000
      2 C15         -3.2350    17.1880    -9.2680 ca         1 R4F      -0.098000
      3 O01         -2.6820    16.7270   -12.0850 o          1 R4F      -0.525100
      4 C02         -3.6720    16.0340   -12.1710 c          1 R4F       0.617100
      5 C03         -4.0450    15.2750   -13.4310 c3         1 R4F      -0.136700
      6 C04         -3.5860    13.8110   -13.2900 c3         1 R4F      -0.087100
      7 C05         -3.4210    15.9360   -14.6580 c3         1 R4F      -0.087100
      8 N06         -4.5080    15.8700   -11.0480 n          1 R4F      -0.097600
      9 C07         -5.6830    15.1450   -11.0080 cc         1 R4F      -0.064400
     10 C08         -6.2180    15.1770    -9.7490 cd         1 R4F      -0.230400
     11 C09         -7.4510    14.5090    -9.4000 c          1 R4F       0.601100
     12 O10         -7.9580    14.5110    -8.2870 o          1 R4F      -0.526100
     13 C11         -5.3300    15.9720    -8.9240 ca         1 R4F      -0.059800
     14 C12         -5.3570    16.3440    -7.5800 ca         1 R4F      -0.061000
     15 C14         -3.2810    17.5470    -7.9260 ca         1 R4F      -0.099000
     16 C16         -4.2710    16.3970    -9.7530 ca         1 R4F      -0.092000
     17 H1          -4.3270    17.4350    -6.0520 ha         1 R4F       0.116000
     18 H2          -2.4280    17.5110    -9.9040 ha         1 R4F       0.142000
     19 H3          -5.1300    15.2920   -13.5470 hc         1 R4F       0.062700
     20 H4          -4.0460    13.3150   -12.4350 hc         1 R4F       0.048867
     21 H5          -3.8570    13.2610   -14.1920 hc         1 R4F       0.048867
     22 H6          -2.5020    13.7650   -13.1720 hc         1 R4F       0.048867
     23 H7          -3.7440    16.9730   -14.7560 hc         1 R4F       0.048867
     24 H8          -2.3330    15.9190   -14.6000 hc         1 R4F       0.048867
     25 H9          -3.7280    15.3930   -15.5530 hc         1 R4F       0.048867
     26 H10         -6.0730    14.6510   -11.8790 h4         1 R4F       0.218000
     27 H11         -7.9350    13.9700   -10.2340 h4         1 R4F      -0.016800
     28 H12         -6.1650    16.0210    -6.9400 ha         1 R4F       0.137000
     29 H13         -2.4880    18.1630    -7.5210 ha         1 R4F       0.115000
@<TRIPOS>BOND
     1     1    14 ar  
     2     1    15 ar  
     3     1    17 1   
     4     2    15 ar  
     5     2    16 ar  
     6     2    18 1   
     7     3     4 2   
     8     4     5 1   
     9     4     8 1   
    10     5     6 1   
    11     5     7 1   
    12     5    19 1   
    13     6    20 1   
    14     6    21 1   
    15     6    22 1   
    16     7    23 1   
    17     7    24 1   
    18     7    25 1   
    19     8     9 1   
    20     8    16 1   
    21     9    10 2   
    22     9    26 1   
    23    10    11 1   
    24    10    13 1   
    25    11    12 2   
    26    11    27 1   
    27    13    14 ar  
    28    13    16 ar  
    29    14    28 1   
    30    15    29 1   
@<TRIPOS>SUBSTRUCTURE
     1 R4F         1 TEMP              0 ****  ****    0 ROOT
