@<TRIPOS>MOLECULE
R4G
   48    50     1     0     0
SMALL
No Charge or Current Charge


@<TRIPOS>ATOM
      1 CAJ         -5.9760    -1.4250    -0.7560 ca         1 R4G      -0.209000
      2 CAK         -7.3630    -1.6250    -0.7330 ca         1 R4G       0.173600
      3 OAP         -7.8950    -2.7280    -1.3240 oh         1 R4G      -0.536600
      4 CAL         -8.1980    -0.6940    -0.1060 ca         1 R4G      -0.255000
      5 CAM         -7.6420     0.4380     0.5000 ca         1 R4G       0.173600
      6 OAO         -8.4590     1.3370     1.1110 oh         1 R4G      -0.536600
      7 CAN         -6.2530     0.6430     0.4800 ca         1 R4G      -0.209000
      8 CAI         -5.4050    -0.2890    -0.1520 ca         1 R4G       0.044200
      9 CAH         -3.9240    -0.1090    -0.1950 ce         1 R4G      -0.199200
     10 CAG         -3.1670     0.9500     0.2170 cf         1 R4G      -0.100200
     11 CAC         -1.7000     1.1300     0.1730 ca         1 R4G      -0.120800
     12 CAD         -1.1410     2.3300     0.6560 ca         1 R4G      -0.061000
     13 CAE          0.2490     2.5330     0.6290 ca         1 R4G      -0.165000
     14 CAB         -0.8380     0.1360    -0.3380 ca         1 R4G      -0.061000
     15 CAA          0.5540     0.3400    -0.3660 ca         1 R4G      -0.165000
     16 CAF          1.1060     1.5440     0.1230 ca         1 R4G       0.181100
     17 O1           2.4610     1.8160     0.1170 os         1 R4G      -0.350100
     18 C1           3.4220     0.8340    -0.3170 c6         1 R4G       0.359300
     19 O5           3.4630    -0.2570     0.6270 os         1 R4G      -0.426000
     20 C5           4.3410    -1.3600     0.2300 c6         1 R4G      -0.019700
     21 C6           4.2860    -2.5850     1.2050 c          1 R4G       0.733000
     22 OBC          4.0040    -3.6560     0.6810 o          1 R4G      -0.694500
     23 O6           3.9060    -2.3610     2.3500 o          1 R4G      -0.694500
     24 C4           5.8000    -0.8330     0.1070 c6         1 R4G       0.173300
     25 O4           6.7050    -1.8550    -0.3450 oh         1 R4G      -0.764000
     26 C3           5.8450     0.3850    -0.8690 c6         1 R4G       0.168300
     27 O3           7.1730     0.9290    -0.9460 oh         1 R4G      -0.640000
     28 C2           4.8410     1.4800    -0.4150 c6         1 R4G       0.100300
     29 O2           4.8800     2.6190    -1.3140 oh         1 R4G      -0.734000
     30 HAJ         -5.3420    -2.1580    -1.2490 ha         1 R4G       0.123500
     31 HAP         -8.8680    -2.6970    -1.2070 ho         1 R4G       0.463000
     32 HAL         -9.2750    -0.8420    -0.0830 ha         1 R4G       0.122000
     33 HAO         -7.9040     2.0580     1.4770 ho         1 R4G       0.463000
     34 HAN         -5.8400     1.5240     0.9600 ha         1 R4G       0.123500
     35 HAH         -3.4070    -0.9640    -0.6280 ha         1 R4G       0.180000
     36 HAG         -3.6940     1.8050     0.6400 ha         1 R4G       0.160000
     37 HAD         -1.7830     3.1120     1.0550 ha         1 R4G       0.106000
     38 HAB         -1.2320    -0.8010    -0.7200 ha         1 R4G       0.106000
     39 HAE          0.6670     3.4640     1.0040 ha         1 R4G       0.134000
     40 HAA          1.1830    -0.4480    -0.7670 ha         1 R4G       0.134000
     41 H1           3.1320     0.4580    -1.3100 h2         1 R4G       0.031700
     42 H2           5.1240     1.8020     0.6000 h1         1 R4G       0.064700
     43 H5           4.0090    -1.7160    -0.7560 h1         1 R4G       0.027700
     44 H4           6.1140    -0.4830     1.1030 h1         1 R4G       0.043700
     45 HA           7.5020    -1.3610    -0.6630 ho         1 R4G       0.571000
     46 H3           5.5340     0.0370    -1.8660 h1         1 R4G       0.038700
     47 HB           7.0440     1.8420    -1.2920 ho         1 R4G       0.434000
     48 HC           4.1310     3.2080    -1.0540 ho         1 R4G       0.508000
@<TRIPOS>BOND
     1     1     2 ar  
     2     1     8 ar  
     3     1    30 1   
     4     2     3 1   
     5     2     4 ar  
     6     3    31 1   
     7     4     5 ar  
     8     4    32 1   
     9     5     6 1   
    10     5     7 ar  
    11     6    33 1   
    12     7     8 ar  
    13     7    34 1   
    14     8     9 1   
    15     9    10 2   
    16     9    35 1   
    17    10    11 1   
    18    10    36 1   
    19    11    12 ar  
    20    11    14 ar  
    21    12    13 ar  
    22    12    37 1   
    23    13    16 ar  
    24    13    39 1   
    25    14    15 ar  
    26    14    38 1   
    27    15    16 ar  
    28    15    40 1   
    29    16    17 1   
    30    17    18 1   
    31    18    19 1   
    32    18    28 1   
    33    18    41 1   
    34    19    20 1   
    35    20    21 1   
    36    20    24 1   
    37    20    43 1   
    38    21    22 1   
    39    21    23 1   
    40    24    25 1   
    41    24    26 1   
    42    24    44 1   
    43    25    45 1   
    44    26    27 1   
    45    26    28 1   
    46    26    46 1   
    47    27    47 1   
    48    28    29 1   
    49    28    42 1   
    50    29    48 1   
@<TRIPOS>SUBSTRUCTURE
     1 R4G         1 TEMP              0 ****  ****    0 ROOT
