@<TRIPOS>MOLECULE
R4G
   48    50     1     0     0
SMALL
bcc


@<TRIPOS>ATOM
      1 CAJ         -5.8820    -1.3750    -0.7240 ca         1 R4G      -0.227000
      2 CAK         -7.2660    -1.5230    -0.7850 ca         1 R4G       0.173600
      3 OAP         -7.7430    -2.6610    -1.3240 oh         1 R4G      -0.497600
      4 CAL         -8.1030    -0.5270    -0.3030 ca         1 R4G      -0.273000
      5 CAM         -7.5410     0.6270     0.2450 ca         1 R4G       0.173600
      6 OAO         -8.3970     1.5630     0.6970 oh         1 R4G      -0.497600
      7 CAN         -6.1640     0.7850     0.3110 ca         1 R4G      -0.227000
      8 CAI         -5.3240    -0.2210    -0.1770 ca         1 R4G       0.044200
      9 CAH         -3.8650    -0.1220    -0.1430 ce         1 R4G      -0.149200
     10 CAG         -3.1500     0.9090     0.3270 cf         1 R4G      -0.050200
     11 CAC         -1.6940     1.0120     0.3560 ca         1 R4G      -0.120800
     12 CAD         -1.1080     2.1990     0.8070 ca         1 R4G      -0.079000
     13 CAE          0.2640     2.3640     0.8400 ca         1 R4G      -0.183000
     14 CAB         -0.8350    -0.0150    -0.0420 ca         1 R4G      -0.079000
     15 CAA          0.5410     0.1270    -0.0030 ca         1 R4G      -0.183000
     16 CAF          1.1000     1.3300     0.4280 ca         1 R4G       0.181100
     17 O1           2.4300     1.5820     0.4860 os         1 R4G      -0.326900
     18 C1           3.3270     0.7290    -0.1560 c6         1 R4G       0.312900
     19 O5           3.5460    -0.3660     0.6770 os         1 R4G      -0.379600
     20 C5           4.4330    -1.3030     0.1120 c6         1 R4G      -0.042900
     21 C6           4.5200    -2.5480     1.0170 c          1 R4G       0.943600
     22 OBC          5.4630    -3.3320     0.7270 o          1 R4G      -0.799800
     23 O6           3.6850    -2.6900     1.9110 o          1 R4G      -0.799800
     24 C4           5.8180    -0.6670    -0.1150 c6         1 R4G       0.150100
     25 O4           6.6840    -1.5680    -0.7450 oh         1 R4G      -0.641800
     26 C3           5.6670     0.5740    -0.9800 c6         1 R4G       0.145100
     27 O3           6.9190     1.2040    -1.0860 oh         1 R4G      -0.577800
     28 C2           4.6210     1.5070    -0.3790 c6         1 R4G       0.077100
     29 O2           4.4360     2.5740    -1.2750 oh         1 R4G      -0.611800
     30 HAJ         -5.2430    -2.1620    -1.1050 ha         1 R4G       0.141500
     31 HAP         -8.7070    -2.6600    -1.3140 ho         1 R4G       0.424000
     32 HAL         -9.1810    -0.6340    -0.3450 ha         1 R4G       0.140000
     33 HAO         -7.9120     2.3090     1.0680 ho         1 R4G       0.424000
     34 HAN         -5.7530     1.6910     0.7420 ha         1 R4G       0.141500
     35 HAH         -3.3480    -0.9830    -0.5520 ha         1 R4G       0.130000
     36 HAG         -3.6680     1.7750     0.7270 ha         1 R4G       0.110000
     37 HAD         -1.7410     3.0170     1.1310 ha         1 R4G       0.124000
     38 HAB         -1.2340    -0.9610    -0.3860 ha         1 R4G       0.124000
     39 HAE          0.6930     3.2960     1.1830 ha         1 R4G       0.152000
     40 HAA          1.1550    -0.7130    -0.2940 ha         1 R4G       0.152000
     41 H1           2.9200     0.4070    -1.1310 h2         1 R4G       0.031700
     42 H2           4.9810     1.8590     0.5990 h1         1 R4G       0.064700
     43 H5           4.0530    -1.6380    -0.8700 h1         1 R4G       0.027700
     44 H4           6.2090    -0.3540     0.8690 h1         1 R4G       0.043700
     45 HA           6.4700    -2.4250    -0.3070 ho         1 R4G       0.472000
     46 H3           5.3070     0.2500    -1.9710 h1         1 R4G       0.038700
     47 HB           6.8180     1.9770    -1.6510 ho         1 R4G       0.395000
     48 HC           3.9710     3.2840    -0.8230 ho         1 R4G       0.409000
@<TRIPOS>BOND
     1     1     2 ar  
     2     1     8 ar  
     3     1    30 1   
     4     2     3 1   
     5     2     4 ar  
     6     3    31 1   
     7     4     5 ar  
     8     4    32 1   
     9     5     6 1   
    10     5     7 ar  
    11     6    33 1   
    12     7     8 ar  
    13     7    34 1   
    14     8     9 1   
    15     9    10 2   
    16     9    35 1   
    17    10    11 1   
    18    10    36 1   
    19    11    12 ar  
    20    11    14 ar  
    21    12    13 ar  
    22    12    37 1   
    23    13    16 ar  
    24    13    39 1   
    25    14    15 ar  
    26    14    38 1   
    27    15    16 ar  
    28    15    40 1   
    29    16    17 1   
    30    17    18 1   
    31    18    19 1   
    32    18    28 1   
    33    18    41 1   
    34    19    20 1   
    35    20    21 1   
    36    20    24 1   
    37    20    43 1   
    38    21    22 1   
    39    21    23 1   
    40    24    25 1   
    41    24    26 1   
    42    24    44 1   
    43    25    45 1   
    44    26    27 1   
    45    26    28 1   
    46    26    46 1   
    47    27    47 1   
    48    28    29 1   
    49    28    42 1   
    50    29    48 1   
@<TRIPOS>SUBSTRUCTURE
     1 R4G         1 TEMP              0 ****  ****    0 ROOT
