@<TRIPOS>MOLECULE
R4H
   70    74     1     0     0
SMALL
No Charge or Current Charge


@<TRIPOS>ATOM
      1 C10        -20.2220   109.1850   310.7950 c3         1 R4H      -0.071900
      2 C11        -21.2910   110.0960   311.4420 c3         1 R4H      -0.071900
      3 C12        -20.8720   111.5480   311.7730 c3         1 R4H      -0.068900
      4 C13        -19.9730   112.2480   310.7280 c3         1 R4H      -0.085900
      5 C14        -16.4390   113.4880   310.6770 c          1 R4H       0.559000
      6 C15        -15.8280   114.2320   309.4710 c5         1 R4H      -0.125000
      7 C16        -14.7630   113.3010   308.8170 c3         1 R4H      -0.074600
      8 C18        -16.6250   113.7180   306.2080 ca         1 R4H      -0.137000
      9 C19        -16.3890   113.9860   304.8420 ca         1 R4H       0.094100
     10 C20        -16.4880   111.5700   304.2050 c3         1 R4H       0.200900
     11 C21        -17.8990   111.2960   304.7350 ca         1 R4H      -0.101300
     12 C22        -19.0280   111.9040   304.1540 ca         1 R4H      -0.097500
     13 C23        -20.3110   111.6880   304.6870 ca         1 R4H      -0.076500
     14 C24        -20.4910   110.8540   305.8150 ca         1 R4H      -0.144500
     15 C25        -21.8230   110.6370   306.4000 cc         1 R4H       0.461000
     16 C26        -19.3580   110.2310   306.3810 ca         1 R4H      -0.076500
     17 C27        -18.0780   110.4470   305.8450 ca         1 R4H      -0.097500
     18 C1         -15.8530   116.9030   302.5460 c3         1 R4H       0.144900
     19 C17        -15.1330   115.5480   309.9150 c3         1 R4H      -0.074600
     20 C2         -16.2460   115.3260   304.4140 ca         1 R4H       0.120100
     21 C3         -16.3550   116.3740   305.3560 ca         1 R4H      -0.176000
     22 C4         -16.6220   116.0900   306.7060 ca         1 R4H      -0.096000
     23 C5         -16.7630   114.7610   307.1460 ca         1 R4H      -0.079300
     24 C6         -17.1260   114.4670   308.6070 c5         1 R4H       0.185800
     25 C7         -18.4540   111.9750   310.9190 c3         1 R4H       0.127700
     26 C8         -18.0230   110.5300   310.5620 c3         1 R4H      -0.085900
     27 C9         -18.7720   109.3860   311.2880 c3         1 R4H      -0.068900
     28 N1         -17.9460   113.2400   308.7860 n7         1 R4H      -0.581400
     29 N2         -17.6250   112.9450   310.1600 n          1 R4H      -0.308200
     30 N3         -22.9960   111.1900   305.9730 na         1 R4H      -0.212700
     31 N4         -24.0290   110.7800   306.7520 nc         1 R4H      -0.203800
     32 N5         -23.4770   109.9910   307.6340 nd         1 R4H      -0.041000
     33 N6         -22.1190   109.8840   307.4410 nd         1 R4H      -0.390000
     34 O3         -16.3130   112.9720   303.8950 os         1 R4H      -0.321100
     35 H1         -20.2510   109.3150   309.7070 hc         1 R4H       0.040450
     36 H2         -20.5140   108.1430   310.9760 hc         1 R4H       0.040450
     37 H3         -22.1610   110.1240   310.7740 hc         1 R4H       0.040450
     38 H4         -21.6400   109.6260   312.3700 hc         1 R4H       0.040450
     39 H5         -20.3720   111.5670   312.7490 hc         1 R4H       0.039450
     40 H6         -21.7880   112.1390   311.8980 hc         1 R4H       0.039450
     41 H7         -20.1350   113.3280   310.8280 hc         1 R4H       0.045200
     42 H8         -20.2930   111.9760   309.7140 hc         1 R4H       0.045200
     43 H9         -13.9590   113.0630   309.5240 hc         1 R4H       0.045700
     44 H10        -15.2020   112.3490   308.4950 hc         1 R4H       0.045700
     45 H11        -14.2980   113.7690   307.9410 hc         1 R4H       0.045700
     46 H12        -16.7200   112.6990   306.5620 ha         1 R4H       0.141000
     47 H13        -16.3330   110.9690   303.3000 h1         1 R4H       0.066700
     48 H14        -15.7390   111.2480   304.9400 h1         1 R4H       0.066700
     49 H15        -18.9100   112.5610   303.2940 ha         1 R4H       0.128000
     50 H16        -21.1580   112.1840   304.2190 ha         1 R4H       0.125000
     51 H17        -19.4610   109.5820   307.2480 ha         1 R4H       0.125000
     52 H18        -17.2190   109.9670   306.3100 ha         1 R4H       0.128000
     53 H19        -15.6720   116.8650   301.4640 h1         1 R4H       0.041033
     54 H20        -16.7590   117.4980   302.7180 h1         1 R4H       0.041033
     55 H21        -15.0010   117.4110   303.0150 h1         1 R4H       0.041033
     56 H22        -14.3020   115.3500   310.6040 hc         1 R4H       0.045700
     57 H23        -14.7280   116.0940   309.0550 hc         1 R4H       0.045700
     58 H24        -15.8370   116.2130   310.4300 hc         1 R4H       0.045700
     59 H25        -16.2530   117.4140   305.0590 ha         1 R4H       0.121000
     60 H26        -16.7280   116.9090   307.4140 ha         1 R4H       0.115000
     61 H27        -17.6850   115.3170   309.0250 h1         1 R4H       0.044700
     62 H28        -18.2370   112.1260   311.9860 h1         1 R4H       0.079700
     63 H29        -16.9550   110.4310   310.7920 hc         1 R4H       0.045200
     64 H30        -18.1120   110.3840   309.4790 hc         1 R4H       0.045200
     65 H31        -18.7530   109.5420   312.3740 hc         1 R4H       0.039450
     66 H32        -18.2210   108.4560   311.1000 hc         1 R4H       0.039450
     67 H33        -18.9310   113.5210   308.7120 hn         1 R4H       0.411000
     68 H34        -23.1220   111.8210   305.1930 hn         1 R4H       0.387000
     69 O2         -16.0480   113.4060   311.8350 o          1 R4H      -0.540000
     70 O1         -16.0070   115.5730   303.0710 os         1 R4H      -0.321100
@<TRIPOS>BOND
     1     1     2 1   
     2     1    27 1   
     3     1    35 1   
     4     1    36 1   
     5     2     3 1   
     6     2    37 1   
     7     2    38 1   
     8     3     4 1   
     9     3    39 1   
    10     3    40 1   
    11     4    25 1   
    12     4    41 1   
    13     4    42 1   
    14     5     6 1   
    15     5    29 1   
    16     5    69 2   
    17     6     7 1   
    18     6    19 1   
    19     6    24 1   
    20     7    43 1   
    21     7    44 1   
    22     7    45 1   
    23     8     9 ar  
    24     8    23 ar  
    25     8    46 1   
    26     9    20 ar  
    27     9    34 1   
    28    10    11 1   
    29    10    34 1   
    30    10    47 1   
    31    10    48 1   
    32    11    12 ar  
    33    11    17 ar  
    34    12    13 ar  
    35    12    49 1   
    36    13    14 ar  
    37    13    50 1   
    38    14    15 1   
    39    14    16 ar  
    40    15    30 1   
    41    15    33 2   
    42    16    17 ar  
    43    16    51 1   
    44    17    52 1   
    45    18    53 1   
    46    18    54 1   
    47    18    55 1   
    48    18    70 1   
    49    19    56 1   
    50    19    57 1   
    51    19    58 1   
    52    20    21 ar  
    53    20    70 1   
    54    21    22 ar  
    55    21    59 1   
    56    22    23 ar  
    57    22    60 1   
    58    23    24 1   
    59    24    28 1   
    60    24    61 1   
    61    25    26 1   
    62    25    29 1   
    63    25    62 1   
    64    26    27 1   
    65    26    63 1   
    66    26    64 1   
    67    27    65 1   
    68    27    66 1   
    69    28    29 1   
    70    28    67 1   
    71    30    31 1   
    72    30    68 1   
    73    31    32 2   
    74    32    33 1   
@<TRIPOS>SUBSTRUCTURE
     1 R4H         1 TEMP              0 ****  ****    0 ROOT
