@<TRIPOS>MOLECULE
R4H
   70    74     1     0     0
SMALL
bcc


@<TRIPOS>ATOM
      1 C10        -20.3280   109.5760   310.2950 c3         1 R4H      -0.071900
      2 C11        -21.3010   110.3360   311.1970 c3         1 R4H      -0.071900
      3 C12        -20.7610   111.6300   311.8060 c3         1 R4H      -0.068900
      4 C13        -19.9160   112.4930   310.8680 c3         1 R4H      -0.085900
      5 C14        -16.4090   113.5550   310.7220 c          1 R4H       0.701500
      6 C15        -15.7290   114.2770   309.5670 c5         1 R4H      -0.125000
      7 C16        -14.7880   113.2630   308.9090 c3         1 R4H      -0.074600
      8 C18        -16.6940   113.7750   306.3360 ca         1 R4H      -0.155000
      9 C19        -16.4920   113.9810   304.9840 ca         1 R4H       0.094100
     10 C20        -16.5930   111.6630   304.4620 c3         1 R4H       0.177700
     11 C21        -17.9750   111.3000   304.9420 ca         1 R4H      -0.101300
     12 C22        -19.1090   111.9270   304.4370 ca         1 R4H      -0.115500
     13 C23        -20.3700   111.5670   304.8820 ca         1 R4H      -0.094500
     14 C24        -20.5210   110.5620   305.8360 ca         1 R4H      -0.144500
     15 C25        -21.8310   110.1620   306.3320 cc         1 R4H       0.461000
     16 C26        -19.3870   109.9230   306.3340 ca         1 R4H      -0.094500
     17 C27        -18.1300   110.2960   305.8930 ca         1 R4H      -0.115500
     18 C1         -15.9740   116.6860   302.6130 c3         1 R4H       0.121700
     19 C17        -14.9580   115.5080   310.0110 c3         1 R4H      -0.074600
     20 C2         -16.3040   115.2890   304.4930 ca         1 R4H       0.120100
     21 C3         -16.3170   116.3490   305.3850 ca         1 R4H      -0.194000
     22 C4         -16.5300   116.1270   306.7450 ca         1 R4H      -0.114000
     23 C5         -16.7160   114.8470   307.2320 ca         1 R4H      -0.079300
     24 C6         -16.9510   114.6220   308.6970 c5         1 R4H       0.185800
     25 C7         -18.4300   112.1240   310.9030 c3         1 R4H       0.127700
     26 C8         -18.0720   110.7820   310.2630 c3         1 R4H      -0.085900
     27 C9         -18.8690   109.5740   310.7520 c3         1 R4H      -0.068900
     28 N1         -17.8460   113.4890   308.9380 n7         1 R4H      -0.526200
     29 N2         -17.6320   113.1830   310.3050 n          1 R4H      -0.375200
     30 N3         -22.9920   110.7970   306.1410 na         1 R4H      -0.162400
     31 N4         -23.9570   110.1330   306.7530 nc         1 R4H      -0.203800
     32 N5         -23.4060   109.1240   307.3030 nd         1 R4H      -0.041000
     33 N6         -22.0970   109.1030   307.0650 nd         1 R4H      -0.390000
     34 O3         -16.4680   113.0040   304.0470 os         1 R4H      -0.297900
     35 H1         -20.3680   109.9900   309.2830 hc         1 R4H       0.040450
     36 H2         -20.6840   108.5480   310.1990 hc         1 R4H       0.040450
     37 H3         -22.2020   110.5580   310.6200 hc         1 R4H       0.040450
     38 H4         -21.6230   109.6860   312.0150 hc         1 R4H       0.040450
     39 H5         -20.1700   111.4000   312.6980 hc         1 R4H       0.039450
     40 H6         -21.6080   112.2170   312.1650 hc         1 R4H       0.039450
     41 H7         -20.0030   113.5390   311.1730 hc         1 R4H       0.045200
     42 H8         -20.3080   112.4310   309.8480 hc         1 R4H       0.045200
     43 H9         -14.0160   112.9540   309.6140 hc         1 R4H       0.045700
     44 H10        -15.3130   112.3670   308.5730 hc         1 R4H       0.045700
     45 H11        -14.2930   113.7050   308.0440 hc         1 R4H       0.045700
     46 H12        -16.8640   112.7820   306.7260 ha         1 R4H       0.159000
     47 H13        -16.3460   111.0690   303.5800 h1         1 R4H       0.066700
     48 H14        -15.8520   111.4150   305.2300 h1         1 R4H       0.066700
     49 H15        -19.0180   112.7100   303.6950 ha         1 R4H       0.146000
     50 H16        -21.2310   112.0740   304.4660 ha         1 R4H       0.143000
     51 H17        -19.4850   109.1440   307.0770 ha         1 R4H       0.143000
     52 H18        -17.2560   109.8060   306.3070 ha         1 R4H       0.146000
     53 H19        -15.8650   116.5530   301.5390 h1         1 R4H       0.041033
     54 H20        -16.8430   117.3220   302.8020 h1         1 R4H       0.041033
     55 H21        -15.0820   117.1890   302.9970 h1         1 R4H       0.041033
     56 H22        -14.1490   115.2370   310.6890 hc         1 R4H       0.045700
     57 H23        -14.5150   116.0070   309.1470 hc         1 R4H       0.045700
     58 H24        -15.6020   116.2270   310.5190 hc         1 R4H       0.045700
     59 H25        -16.1780   117.3630   305.0380 ha         1 R4H       0.139000
     60 H26        -16.5630   116.9760   307.4170 ha         1 R4H       0.133000
     61 H27        -17.3850   115.5420   309.1170 h1         1 R4H       0.044700
     62 H28        -18.1260   112.1030   311.9530 h1         1 R4H       0.079700
     63 H29        -17.0070   110.6060   310.4400 hc         1 R4H       0.045200
     64 H30        -18.1950   110.8610   309.1790 hc         1 R4H       0.045200
     65 H31        -18.8020   109.4820   311.8410 hc         1 R4H       0.039450
     66 H32        -18.3770   108.6840   310.3510 hc         1 R4H       0.039450
     67 H33        -18.8040   113.8130   308.8480 hn         1 R4H       0.355800
     68 H34        -23.2000   111.6520   305.6430 hn         1 R4H       0.336700
     69 O2         -15.9150   113.2970   311.8090 o          1 R4H      -0.615500
     70 O1         -16.1310   115.3960   303.1630 os         1 R4H      -0.297900
@<TRIPOS>BOND
     1     1     2 1   
     2     1    27 1   
     3     1    35 1   
     4     1    36 1   
     5     2     3 1   
     6     2    37 1   
     7     2    38 1   
     8     3     4 1   
     9     3    39 1   
    10     3    40 1   
    11     4    25 1   
    12     4    41 1   
    13     4    42 1   
    14     5     6 1   
    15     5    29 1   
    16     5    69 2   
    17     6     7 1   
    18     6    19 1   
    19     6    24 1   
    20     7    43 1   
    21     7    44 1   
    22     7    45 1   
    23     8     9 ar  
    24     8    23 ar  
    25     8    46 1   
    26     9    20 ar  
    27     9    34 1   
    28    10    11 1   
    29    10    34 1   
    30    10    47 1   
    31    10    48 1   
    32    11    12 ar  
    33    11    17 ar  
    34    12    13 ar  
    35    12    49 1   
    36    13    14 ar  
    37    13    50 1   
    38    14    15 1   
    39    14    16 ar  
    40    15    30 1   
    41    15    33 2   
    42    16    17 ar  
    43    16    51 1   
    44    17    52 1   
    45    18    53 1   
    46    18    54 1   
    47    18    55 1   
    48    18    70 1   
    49    19    56 1   
    50    19    57 1   
    51    19    58 1   
    52    20    21 ar  
    53    20    70 1   
    54    21    22 ar  
    55    21    59 1   
    56    22    23 ar  
    57    22    60 1   
    58    23    24 1   
    59    24    28 1   
    60    24    61 1   
    61    25    26 1   
    62    25    29 1   
    63    25    62 1   
    64    26    27 1   
    65    26    63 1   
    66    26    64 1   
    67    27    65 1   
    68    27    66 1   
    69    28    29 1   
    70    28    67 1   
    71    30    31 1   
    72    30    68 1   
    73    31    32 2   
    74    32    33 1   
@<TRIPOS>SUBSTRUCTURE
     1 R4H         1 TEMP              0 ****  ****    0 ROOT
