@<TRIPOS>MOLECULE
R4I
   65    69     1     0     0
SMALL
No Charge or Current Charge


@<TRIPOS>ATOM
      1 C5         -56.8240    22.3990   -34.3760 c          1 R4I       0.567200
      2 C6         -57.2090    22.8590   -35.7260 cc         1 R4I      -0.128900
      3 C7         -56.5560    18.7070   -34.9260 c6         1 R4I      -0.029500
      4 C8         -56.1980    17.9260   -36.2140 c6         1 R4I       0.175800
      5 C10        -57.2670    19.5560   -37.7070 c6         1 R4I       0.224000
      6 C13        -58.7450    16.1670   -32.7520 c3         1 R4I      -0.090100
      7 C15        -57.3950    24.2670   -35.8210 cg         1 R4I       0.310700
      8 C17        -57.7490    22.4940   -38.1470 ca         1 R4I      -0.092800
      9 C20        -58.3330    23.4660   -40.7480 ca         1 R4I      -0.063300
     10 C21        -59.1770    22.5240   -40.1350 ca         1 R4I      -0.112000
     11 C22        -58.8900    22.0450   -38.8460 ca         1 R4I      -0.080000
     12 C28        -58.8930    17.1220   -41.8890 c5         1 R4I       0.097000
     13 C29        -58.1110    16.7350   -43.2080 c5         1 R4I      -0.043100
     14 C30        -56.9230    15.9620   -42.6680 ca         1 R4I      -0.127300
     15 C35        -55.9650    15.2780   -43.4310 ca         1 R4I      -0.067000
     16 C34        -54.9220    14.6040   -42.7690 ca         1 R4I      -0.132000
     17 C33        -54.8490    14.6210   -41.3610 ca         1 R4I      -0.084000
     18 C32        -55.8160    15.3150   -40.6070 ca         1 R4I      -0.145000
     19 C31        -56.8560    15.9800   -41.2880 ca         1 R4I      -0.023000
     20 N27        -57.9270    16.7860   -40.8080 n          1 R4I      -0.234400
     21 C25        -58.2500    17.1480   -39.4730 c          1 R4I       0.605100
     22 O26        -59.3910    17.5200   -39.2010 o          1 R4I      -0.570100
     23 N9         -57.2330    18.1380   -37.2520 n3         1 R4I      -0.705600
     24 C11        -57.7710    18.0960   -34.1520 c3         1 R4I      -0.075400
     25 C12        -57.5510    16.6730   -33.5860 c3         1 R4I      -0.073400
     26 C2         -57.2170    20.5590   -36.5560 cd         1 R4I      -0.185200
     27 C3         -56.8470    20.1470   -35.2880 cc         1 R4I       0.103400
     28 N4         -56.6820    21.0500   -34.2660 ns         1 R4I      -0.358100
     29 O14        -56.6360    23.1200   -33.4060 o          1 R4I      -0.544000
     30 N16        -57.5590    25.4180   -35.9250 n1         1 R4I      -0.452000
     31 C1         -57.4480    21.9820   -36.7870 cd         1 R4I       0.136800
     32 C18        -56.9120    23.4470   -38.7650 ca         1 R4I      -0.080000
     33 C19        -57.1990    23.9250   -40.0550 ca         1 R4I      -0.112000
     34 C23        -58.6410    23.9810   -42.1460 c3         1 R4I      -0.048800
     35 H2         -55.6920    18.6550   -34.2500 hc         1 R4I       0.060700
     36 H3         -56.0890    16.8580   -35.9800 h1         1 R4I       0.041700
     37 H4         -55.2190    18.2670   -36.5830 h1         1 R4I       0.041700
     38 H5         -56.4160    19.7560   -38.3750 h1         1 R4I       0.054700
     39 H6         -58.1730    19.7040   -38.3030 h1         1 R4I       0.054700
     40 H7         -58.5470    15.1560   -32.3760 hc         1 R4I       0.036700
     41 H8         -58.9250    16.8240   -31.8920 hc         1 R4I       0.036700
     42 H9         -59.6570    16.1340   -33.3610 hc         1 R4I       0.036700
     43 H10        -60.0630    22.1660   -40.6550 ha         1 R4I       0.116000
     44 H11        -59.5760    21.3430   -38.3780 ha         1 R4I       0.124000
     45 H12        -57.0690    16.1460   -37.9980 h1         1 R4I       0.056200
     46 H13        -56.1810    17.3660   -38.9230 h1         1 R4I       0.056200
     47 H15        -59.8110    16.5280   -41.7840 h1         1 R4I       0.065700
     48 H16        -57.7900    17.6280   -43.7550 hc         1 R4I       0.063200
     49 H17        -58.7310    16.1390   -43.8870 hc         1 R4I       0.063200
     50 H18        -56.0270    15.2670   -44.5170 ha         1 R4I       0.119000
     51 H19        -54.1710    14.0670   -43.3450 ha         1 R4I       0.119000
     52 H20        -54.0430    14.0940   -40.8550 ha         1 R4I       0.115000
     53 H21        -55.7420    15.2910   -39.5260 ha         1 R4I       0.116000
     54 H23        -58.0300    18.7540   -33.3130 hc         1 R4I       0.060200
     55 H24        -58.6530    18.0830   -34.8040 hc         1 R4I       0.060200
     56 H25        -57.3790    15.9670   -34.4060 hc         1 R4I       0.035200
     57 H26        -56.6500    16.6640   -32.9590 hc         1 R4I       0.035200
     58 H27        -56.0180    23.8030   -38.2570 ha         1 R4I       0.124000
     59 H28        -56.5340    24.6520   -40.5180 ha         1 R4I       0.116000
     60 H29        -58.1740    23.3460   -42.9070 hc         1 R4I       0.044700
     61 H30        -59.7210    23.9950   -42.3370 hc         1 R4I       0.044700
     62 H31        -58.2690    25.0030   -42.2870 hc         1 R4I       0.044700
     63 H1         -56.4130    20.7210   -33.3470 hn         1 R4I       0.330500
     64 C24        -57.1210    17.1690   -38.3930 c3         1 R4I       0.099800
     65 H14        -59.1670    18.1860   -41.8780 h1         1 R4I       0.065700
@<TRIPOS>BOND
     1     1     2 1   
     2     1    28 1   
     3     1    29 2   
     4     2     7 1   
     5     2    31 2   
     6     3     4 1   
     7     3    24 1   
     8     3    27 1   
     9     3    35 1   
    10     4    23 1   
    11     4    36 1   
    12     4    37 1   
    13     5    23 1   
    14     5    26 1   
    15     5    38 1   
    16     5    39 1   
    17     6    25 1   
    18     6    40 1   
    19     6    41 1   
    20     6    42 1   
    21     7    30 3   
    22     8    11 ar  
    23     8    31 1   
    24     8    32 ar  
    25     9    10 ar  
    26     9    33 ar  
    27     9    34 1   
    28    10    11 ar  
    29    10    43 1   
    30    11    44 1   
    31    12    13 1   
    32    12    20 1   
    33    12    47 1   
    34    12    65 1   
    35    13    14 1   
    36    13    48 1   
    37    13    49 1   
    38    14    15 ar  
    39    14    19 ar  
    40    15    16 ar  
    41    15    50 1   
    42    16    17 ar  
    43    16    51 1   
    44    17    18 ar  
    45    17    52 1   
    46    18    19 ar  
    47    18    53 1   
    48    19    20 1   
    49    20    21 1   
    50    21    22 2   
    51    21    64 1   
    52    23    64 1   
    53    24    25 1   
    54    24    54 1   
    55    24    55 1   
    56    25    56 1   
    57    25    57 1   
    58    26    27 2   
    59    26    31 1   
    60    27    28 1   
    61    28    63 1   
    62    32    33 ar  
    63    32    58 1   
    64    33    59 1   
    65    34    60 1   
    66    34    61 1   
    67    34    62 1   
    68    45    64 1   
    69    46    64 1   
@<TRIPOS>SUBSTRUCTURE
     1 R4I         1 TEMP              0 ****  ****    0 ROOT
