@<TRIPOS>MOLECULE
R4I
   65    69     1     0     0
SMALL
abcg2


@<TRIPOS>ATOM
      1 C5         -57.1630    22.3740   -34.4090 c          1 R4I       0.567200
      2 C6         -57.4230    22.7970   -35.7680 cc         1 R4I      -0.128900
      3 C7         -56.6050    18.6930   -34.9560 c6         1 R4I      -0.029500
      4 C8         -56.1700    17.9420   -36.2160 c6         1 R4I       0.175800
      5 C10        -57.0950    19.5510   -37.7400 c6         1 R4I       0.224000
      6 C13        -58.6800    16.1060   -32.8580 c3         1 R4I      -0.090100
      7 C15        -57.7070    24.1740   -35.9590 cg         1 R4I       0.310700
      8 C17        -57.6560    22.4030   -38.2070 ca         1 R4I      -0.092800
      9 C20        -58.0950    23.3670   -40.8150 ca         1 R4I      -0.063300
     10 C21        -59.0510    22.5790   -40.1690 ca         1 R4I      -0.112000
     11 C22        -58.8360    22.0960   -38.8870 ca         1 R4I      -0.080000
     12 C28        -59.1060    16.8840   -41.5590 c5         1 R4I       0.097000
     13 C29        -58.4000    16.7950   -42.9190 c5         1 R4I      -0.043100
     14 C30        -57.1020    16.1110   -42.5820 ca         1 R4I      -0.127300
     15 C35        -56.1650    15.5370   -43.4210 ca         1 R4I      -0.067000
     16 C34        -55.0260    14.9460   -42.8730 ca         1 R4I      -0.132000
     17 C33        -54.8510    14.9270   -41.4940 ca         1 R4I      -0.084000
     18 C32        -55.7900    15.5010   -40.6360 ca         1 R4I      -0.145000
     19 C31        -56.9070    16.1140   -41.1950 ca         1 R4I      -0.023000
     20 N27        -58.0110    16.7430   -40.5710 n          1 R4I      -0.234400
     21 C25        -58.1820    17.2290   -39.3110 c          1 R4I       0.605100
     22 O26        -59.2780    17.6590   -38.9570 o          1 R4I      -0.570100
     23 N9         -57.1360    18.1710   -37.2820 n3         1 R4I      -0.705600
     24 C11        -57.8130    18.0360   -34.2520 c3         1 R4I      -0.075400
     25 C12        -57.4750    16.7100   -33.5740 c3         1 R4I      -0.073400
     26 C2         -57.1690    20.5310   -36.5980 cd         1 R4I      -0.185200
     27 C3         -56.9100    20.1180   -35.3130 cc         1 R4I       0.103400
     28 N4         -56.9180    21.0170   -34.2970 ns         1 R4I      -0.358100
     29 O14        -57.1470    23.1040   -33.4160 o          1 R4I      -0.544000
     30 N16        -57.9440    25.2950   -36.0940 n1         1 R4I      -0.452000
     31 C1         -57.4190    21.9030   -36.8300 cd         1 R4I       0.136800
     32 C18        -56.7010    23.1990   -38.8380 ca         1 R4I      -0.080000
     33 C19        -56.9190    23.6680   -40.1270 ca         1 R4I      -0.112000
     34 C23        -58.3200    23.8550   -42.2200 c3         1 R4I      -0.048800
     35 H2         -55.7660    18.7020   -34.2520 hc         1 R4I       0.060700
     36 H3         -56.1210    16.8750   -36.0100 h1         1 R4I       0.041700
     37 H4         -55.1580    18.2660   -36.5080 h1         1 R4I       0.041700
     38 H5         -56.1710    19.7480   -38.3150 h1         1 R4I       0.054700
     39 H6         -57.9270    19.7110   -38.4210 h1         1 R4I       0.054700
     40 H7         -58.4220    15.1590   -32.3790 hc         1 R4I       0.036700
     41 H8         -59.0580    16.7810   -32.0860 hc         1 R4I       0.036700
     42 H9         -59.4960    15.9150   -33.5610 hc         1 R4I       0.036700
     43 H10        -59.9780    22.3410   -40.6780 ha         1 R4I       0.116000
     44 H11        -59.5910    21.4870   -38.4040 ha         1 R4I       0.124000
     45 H12        -56.8520    16.2410   -37.9750 h1         1 R4I       0.056200
     46 H13        -56.0690    17.4680   -38.9710 h1         1 R4I       0.056200
     47 H15        -59.8210    16.0690   -41.4230 h1         1 R4I       0.065700
     48 H16        -58.2120    17.7920   -43.3280 hc         1 R4I       0.063200
     49 H17        -58.9900    16.2440   -43.6500 hc         1 R4I       0.063200
     50 H18        -56.3200    15.5420   -44.4930 ha         1 R4I       0.119000
     51 H19        -54.2870    14.4900   -43.5190 ha         1 R4I       0.119000
     52 H20        -53.9790    14.4470   -41.0670 ha         1 R4I       0.115000
     53 H21        -55.6400    15.4340   -39.5710 ha         1 R4I       0.116000
     54 H23        -58.2060    18.7240   -33.4980 hc         1 R4I       0.060200
     55 H24        -58.6070    17.8920   -34.9890 hc         1 R4I       0.060200
     56 H25        -57.1000    15.9970   -34.3120 hc         1 R4I       0.035200
     57 H26        -56.6630    16.8730   -32.8580 hc         1 R4I       0.035200
     58 H27        -55.7840    23.4480   -38.3190 ha         1 R4I       0.124000
     59 H28        -56.1640    24.2820   -40.6040 ha         1 R4I       0.116000
     60 H29        -58.0290    23.0900   -42.9450 hc         1 R4I       0.044700
     61 H30        -59.3720    24.0850   -42.3940 hc         1 R4I       0.044700
     62 H31        -57.7280    24.7470   -42.4270 hc         1 R4I       0.044700
     63 H1         -56.7160    20.6920   -33.3590 hn         1 R4I       0.330500
     64 C24        -56.9720    17.2470   -38.3830 c3         1 R4I       0.099800
     65 H14        -59.6220    17.8250   -41.3940 h1         1 R4I       0.065700
@<TRIPOS>BOND
     1     1     2 1   
     2     1    28 1   
     3     1    29 2   
     4     2     7 1   
     5     2    31 2   
     6     3     4 1   
     7     3    24 1   
     8     3    27 1   
     9     3    35 1   
    10     4    23 1   
    11     4    36 1   
    12     4    37 1   
    13     5    23 1   
    14     5    26 1   
    15     5    38 1   
    16     5    39 1   
    17     6    25 1   
    18     6    40 1   
    19     6    41 1   
    20     6    42 1   
    21     7    30 3   
    22     8    11 ar  
    23     8    31 1   
    24     8    32 ar  
    25     9    10 ar  
    26     9    33 ar  
    27     9    34 1   
    28    10    11 ar  
    29    10    43 1   
    30    11    44 1   
    31    12    13 1   
    32    12    20 1   
    33    12    47 1   
    34    12    65 1   
    35    13    14 1   
    36    13    48 1   
    37    13    49 1   
    38    14    15 ar  
    39    14    19 ar  
    40    15    16 ar  
    41    15    50 1   
    42    16    17 ar  
    43    16    51 1   
    44    17    18 ar  
    45    17    52 1   
    46    18    19 ar  
    47    18    53 1   
    48    19    20 1   
    49    20    21 1   
    50    21    22 2   
    51    21    64 1   
    52    23    64 1   
    53    24    25 1   
    54    24    54 1   
    55    24    55 1   
    56    25    56 1   
    57    25    57 1   
    58    26    27 2   
    59    26    31 1   
    60    27    28 1   
    61    28    63 1   
    62    32    33 ar  
    63    32    58 1   
    64    33    59 1   
    65    34    60 1   
    66    34    61 1   
    67    34    62 1   
    68    45    64 1   
    69    46    64 1   
@<TRIPOS>SUBSTRUCTURE
     1 R4I         1 TEMP              0 ****  ****    0 ROOT
