@<TRIPOS>MOLECULE
R4J
   56    60     1     0     0
SMALL
No Charge or Current Charge


@<TRIPOS>ATOM
      1 C2          26.2400    -2.1400    26.9630 ca         1 R4J       0.087000
      2 C3          25.9260    -1.4810    28.1740 ca         1 R4J      -0.054000
      3 C4          25.6150    -0.0970    28.1860 cp         1 R4J      -0.073000
      4 C5          25.2720     0.6250    29.4380 cp         1 R4J       0.043000
      5 C6          23.9420     0.9880    29.7590 ca         1 R4J      -0.137000
      6 C7          23.6680     1.7030    30.9500 ca         1 R4J       0.334900
      7 C11         28.2560     1.6350    31.7110 cc         1 R4J      -0.059600
      8 C16         30.4100     2.9410    31.4500 c3         1 R4J       0.131600
      9 C18         29.6640     2.1300    33.7730 c3         1 R4J       0.108600
     10 C24         25.9150     0.9150    24.6280 c5         1 R4J      -0.039100
     11 C27         27.4580     2.7380    25.6490 c          1 R4J       0.588100
     12 O28         28.4450     2.1660    25.1950 o          1 R4J      -0.599100
     13 C30         28.9360     4.5610    26.6010 c6         1 R4J       0.096500
     14 C31         29.3060     4.3690    28.1000 c6         1 R4J       0.135300
     15 C33         26.8990     4.4290    28.6890 c6         1 R4J       0.135300
     16 C34         26.5530     4.6320    27.1840 c6         1 R4J       0.096500
     17 Cl1         26.6190    -3.8580    26.9800 cl         1 R4J      -0.195000
     18 N8          24.6300     2.0850    31.8310 nb         1 R4J      -0.633000
     19 C9          25.8850     1.7350    31.5060 ca         1 R4J       0.359800
     20 C10         27.0540     2.0670    32.2640 cd         1 R4J      -0.265800
     21 S12         27.9700     0.7670    30.1610 ss         1 R4J       0.153400
     22 C13         26.2260     1.0400    30.3820 ca         1 R4J      -0.227000
     23 C14         29.6670     1.8180    32.2470 c3         1 R4J       0.243200
     24 O15         30.3880     0.5870    32.0580 oh         1 R4J      -0.649000
     25 O17         29.7580     4.2190    31.5810 oh         1 R4J      -0.656000
     26 Cl19        31.3340     2.0650    34.5200 cl         1 R4J      -0.292000
     27 C20         25.6480     0.5680    26.9460 ca         1 R4J       0.129100
     28 O21         25.4060     1.9040    26.8140 os         1 R4J      -0.324100
     29 C22         25.9690     2.2440    25.4940 c5         1 R4J       0.078300
     30 C25         25.9510    -0.0620    25.7640 ca         1 R4J      -0.143300
     31 C26         26.2520    -1.4330    25.7430 ca         1 R4J      -0.037000
     32 N29         27.5900     3.9880    26.3190 n          1 R4J      -0.395800
     33 N32         28.2670     4.9260    29.0110 n7         1 R4J      -0.864400
     34 H1          25.9190    -2.0410    29.1050 ha         1 R4J       0.140000
     35 H2          23.1270     0.7240    29.0920 ha         1 R4J       0.131000
     36 H3          22.6460     1.9830    31.2010 h4         1 R4J       0.022100
     37 H4          31.4450     3.0110    31.8090 h1         1 R4J       0.037700
     38 H5          30.4560     2.6530    30.3910 h1         1 R4J       0.037700
     39 H6          29.2540     3.1300    33.9600 h1         1 R4J       0.087700
     40 H7          29.0430     1.3950    34.3010 h1         1 R4J       0.087700
     41 H8          24.9800     0.8430    24.0620 hc         1 R4J       0.082700
     42 H9          26.7400     0.8040    23.9150 hc         1 R4J       0.082700
     43 H11         28.9260     5.6350    26.3660 h1         1 R4J       0.061700
     44 H12         29.4190     3.2930    28.3000 h1         1 R4J       0.042450
     45 H13         30.2750     4.8470    28.3070 h1         1 R4J       0.042450
     46 H14         26.1600     4.9490    29.3150 h1         1 R4J       0.042450
     47 H15         26.8380     3.3570    28.9250 h1         1 R4J       0.042450
     48 H16         26.5450     5.7100    26.9720 h1         1 R4J       0.061700
     49 H17         25.5370     4.2790    26.9760 h1         1 R4J       0.061700
     50 H18         26.9840     2.6290    33.1880 ha         1 R4J       0.221000
     51 H19         31.1810     0.6380    32.6370 ho         1 R4J       0.463000
     52 H20         30.4430     4.9100    31.4340 ho         1 R4J       0.455000
     53 H21         25.3910     3.0590    25.0390 h1         1 R4J       0.093700
     54 H22         26.4950    -1.9380    24.8110 ha         1 R4J       0.137000
     55 H23         28.5070     4.6660    29.9820 hn         1 R4J       0.427000
     56 H10         29.7090     4.1020    25.9700 h1         1 R4J       0.061700
@<TRIPOS>BOND
     1     1     2 ar  
     2     1    17 1   
     3     1    31 ar  
     4     2     3 ar  
     5     2    34 1   
     6     3     4 1   
     7     3    27 ar  
     8     4     5 ar  
     9     4    22 ar  
    10     5     6 ar  
    11     5    35 1   
    12     6    18 ar  
    13     6    36 1   
    14     7    20 2   
    15     7    21 1   
    16     7    23 1   
    17     8    23 1   
    18     8    25 1   
    19     8    37 1   
    20     8    38 1   
    21     9    23 1   
    22     9    26 1   
    23     9    39 1   
    24     9    40 1   
    25    10    29 1   
    26    10    30 1   
    27    10    41 1   
    28    10    42 1   
    29    11    12 2   
    30    11    29 1   
    31    11    32 1   
    32    13    14 1   
    33    13    32 1   
    34    13    43 1   
    35    13    56 1   
    36    14    33 1   
    37    14    44 1   
    38    14    45 1   
    39    15    16 1   
    40    15    33 1   
    41    15    46 1   
    42    15    47 1   
    43    16    32 1   
    44    16    48 1   
    45    16    49 1   
    46    18    19 ar  
    47    19    20 1   
    48    19    22 ar  
    49    20    50 1   
    50    21    22 1   
    51    23    24 1   
    52    24    51 1   
    53    25    52 1   
    54    27    28 1   
    55    27    30 ar  
    56    28    29 1   
    57    29    53 1   
    58    30    31 ar  
    59    31    54 1   
    60    33    55 1   
@<TRIPOS>SUBSTRUCTURE
     1 R4J         1 TEMP              0 ****  ****    0 ROOT
