@<TRIPOS>MOLECULE
R4J
   56    60     1     0     0
SMALL
bcc


@<TRIPOS>ATOM
      1 C2          26.3630    -2.0810    27.1070 ca         1 R4J      -0.004600
      2 C3          26.0130    -1.4000    28.2610 ca         1 R4J      -0.072000
      3 C4          25.6790    -0.0450    28.2040 cp         1 R4J      -0.073000
      4 C5          25.3670     0.7550    29.4040 cp         1 R4J       0.043000
      5 C6          24.1130     1.2890    29.6450 ca         1 R4J      -0.220300
      6 C7          23.9120     2.1160    30.7530 ca         1 R4J       0.400200
      7 C11         28.3460     1.6250    31.6850 cc         1 R4J      -0.059600
      8 C16         30.4640     2.9020    31.4740 c3         1 R4J       0.108400
      9 C18         29.7630     1.8400    33.6820 c3         1 R4J       0.032000
     10 C24         26.0470     0.8730    24.6790 c5         1 R4J      -0.039100
     11 C27         27.4090     2.7840    25.6810 c          1 R4J       0.655100
     12 O28         28.3840     2.2430    25.1770 o          1 R4J      -0.599100
     13 C30         28.8050     4.3560    26.9020 c6         1 R4J       0.096500
     14 C31         28.8980     4.2160    28.4130 c6         1 R4J       0.135300
     15 C33         26.5200     4.4840    28.6060 c6         1 R4J       0.135300
     16 C34         26.4160     4.6060    27.0930 c6         1 R4J       0.096500
     17 CL1         26.7630    -3.7660    27.2140 cl         1 R4J      -0.103400
     18 N8          24.8590     2.4570    31.6070 nb         1 R4J      -0.633000
     19 C9          26.0770     1.9570    31.3860 ca         1 R4J       0.425100
     20 C10         27.2460     2.2500    32.1600 cd         1 R4J      -0.215800
     21 S12         28.0290     0.6420    30.2820 ss         1 R4J       0.026500
     22 C13         26.3630     1.0950    30.3130 ca         1 R4J      -0.165400
     23 C14         29.7710     1.7140    32.1570 c3         1 R4J       0.220000
     24 O15         30.3860     0.5200    31.7480 oh         1 R4J      -0.586800
     25 O17         29.7910     4.0870    31.8060 oh         1 R4J      -0.593800
     26 CL19        31.4380     1.8410    34.3330 cl         1 R4J      -0.215400
     27 C20         25.7250     0.5620    26.9620 ca         1 R4J       0.129100
     28 O21         25.4560     1.8650    26.7420 os         1 R4J      -0.300900
     29 C22         26.0040     2.1980    25.4520 c5         1 R4J       0.055100
     30 C25         26.0950    -0.1130    25.8090 ca         1 R4J      -0.143300
     31 C26         26.4130    -1.4520    25.8630 ca         1 R4J      -0.055000
     32 N29         27.5040     3.8780    26.4560 n          1 R4J      -0.462800
     33 N32         27.8220     4.9550    29.0460 n7         1 R4J      -0.809200
     34 H1          25.9970    -1.9150    29.2130 ha         1 R4J       0.158000
     35 H2          23.2870     1.0770    28.9790 ha         1 R4J       0.149000
     36 H3          22.9250     2.5250    30.9370 h4         1 R4J       0.022100
     37 H4          31.5140     2.9290    31.7930 h1         1 R4J       0.037700
     38 H5          30.4620     2.7150    30.3930 h1         1 R4J       0.037700
     39 H6          29.2950     2.7630    34.0120 h1         1 R4J       0.087700
     40 H7          29.2490     0.9940    34.1320 h1         1 R4J       0.087700
     41 H8          25.1370     0.7440    24.0870 hc         1 R4J       0.082700
     42 H9          26.8970     0.8090    24.0040 hc         1 R4J       0.082700
     43 H11         28.9110     5.4070    26.6170 h1         1 R4J       0.061700
     44 H12         28.8830     3.1420    28.6620 h1         1 R4J       0.042450
     45 H13         29.8560     4.6170    28.7500 h1         1 R4J       0.042450
     46 H14         25.7410     5.0960    29.0650 h1         1 R4J       0.042450
     47 H15         26.3250     3.4400    28.8830 h1         1 R4J       0.042450
     48 H16         26.5090     5.6580    26.8050 h1         1 R4J       0.061700
     49 H17         25.4430     4.2700    26.7510 h1         1 R4J       0.061700
     50 H18         27.2310     2.9090    33.0160 ha         1 R4J       0.171000
     51 H19         31.3340     0.5740    31.9190 ho         1 R4J       0.424000
     52 H20         30.3570     4.8310    31.5820 ho         1 R4J       0.416000
     53 H21         25.3460     2.9310    24.9830 h1         1 R4J       0.093700
     54 H22         26.7000    -2.0000    24.9760 ha         1 R4J       0.155000
     55 H23         27.9010     4.8530    30.0500 hn         1 R4J       0.371800
     56 H10         29.5960     3.7950    26.4150 h1         1 R4J       0.061700
@<TRIPOS>BOND
     1     1     2 ar  
     2     1    17 1   
     3     1    31 ar  
     4     2     3 ar  
     5     2    34 1   
     6     3     4 1   
     7     3    27 ar  
     8     4     5 ar  
     9     4    22 ar  
    10     5     6 ar  
    11     5    35 1   
    12     6    18 ar  
    13     6    36 1   
    14     7    20 2   
    15     7    21 1   
    16     7    23 1   
    17     8    23 1   
    18     8    25 1   
    19     8    37 1   
    20     8    38 1   
    21     9    23 1   
    22     9    26 1   
    23     9    39 1   
    24     9    40 1   
    25    10    29 1   
    26    10    30 1   
    27    10    41 1   
    28    10    42 1   
    29    11    12 2   
    30    11    29 1   
    31    11    32 1   
    32    13    14 1   
    33    13    32 1   
    34    13    43 1   
    35    13    56 1   
    36    14    33 1   
    37    14    44 1   
    38    14    45 1   
    39    15    16 1   
    40    15    33 1   
    41    15    46 1   
    42    15    47 1   
    43    16    32 1   
    44    16    48 1   
    45    16    49 1   
    46    18    19 ar  
    47    19    20 1   
    48    19    22 ar  
    49    20    50 1   
    50    21    22 1   
    51    23    24 1   
    52    24    51 1   
    53    25    52 1   
    54    27    28 1   
    55    27    30 ar  
    56    28    29 1   
    57    29    53 1   
    58    30    31 ar  
    59    31    54 1   
    60    33    55 1   
@<TRIPOS>SUBSTRUCTURE
     1 R4J         1 TEMP              0 ****  ****    0 ROOT
