@<TRIPOS>MOLECULE
R4K
   29    30     1     0     0
SMALL
bcc


@<TRIPOS>ATOM
      1 C50         59.1630  -138.1570    39.1950 ca         1 R4K      -0.102300
      2 C51         58.5870  -137.9350    40.4280 ca         1 R4K      -0.041000
      3 C52         57.3120  -137.3710    40.4850 ca         1 R4K      -0.176000
      4 C53         56.6390  -137.0400    39.3170 ca         1 R4K      -0.101000
      5 C54         57.2100  -137.2630    38.0660 ca         1 R4K      -0.188000
      6 C55         58.4730  -137.8250    38.0310 ca         1 R4K       0.085600
      7 N31         59.2340  -138.1600    36.9210 ns         1 R4K      -0.463100
      8 C32         60.4500  -138.6550    37.2710 c          1 R4K       0.724500
      9 O33         61.3000  -139.0810    36.5200 o          1 R4K      -0.622500
     10 N           61.5890  -136.1930    37.8540 n8         1 R4K      -0.913800
     11 CA          61.7000  -136.5090    39.2720 c3         1 R4K       0.015500
     12 C           62.9640  -135.9100    39.9410 c          1 R4K       0.917600
     13 O           64.0420  -136.1650    39.3640 o          1 R4K      -0.828800
     14 CB          61.7180  -138.0240    39.4210 c3         1 R4K       0.168100
     15 O34         61.8030  -138.3150    40.7930 oh         1 R4K      -0.564800
     16 C29         60.4930  -138.7360    38.8120 c5         1 R4K       0.089100
     17 O30         60.5200  -140.1060    39.1720 oh         1 R4K      -0.602800
     18 H51         59.1140  -138.1850    41.3390 ha         1 R4K       0.153000
     19 H52         56.8460  -137.1900    41.4450 ha         1 R4K       0.124000
     20 H53         55.6500  -136.6030    39.3730 ha         1 R4K       0.115000
     21 H31         58.9460  -138.0110    35.9650 hn         1 R4K       0.325500
     22 HA          60.8090  -136.1220    39.7740 h1         1 R4K       0.055700
     23 HB2         62.6030  -138.4090    38.8860 h1         1 R4K       0.054700
     24 H34         61.7700  -139.2720    40.8990 ho         1 R4K       0.385000
     25 H30         61.2750  -140.5240    38.7360 ho         1 R4K       0.414000
     26 H54         56.6810  -137.0070    37.1580 ha         1 R4K       0.124000
     27 OXT         62.8030  -135.2270    40.9690 o          1 R4K      -0.828800
     28 H           61.3630  -135.2130    37.7430 hn         1 R4K       0.340800
     29 H2          62.5040  -136.3150    37.4330 hn         1 R4K       0.340800
@<TRIPOS>BOND
     1     1     2 ar  
     2     1     6 ar  
     3     1    16 1   
     4     2     3 ar  
     5     2    18 1   
     6     3     4 ar  
     7     3    19 1   
     8     4     5 ar  
     9     4    20 1   
    10     5     6 ar  
    11     5    26 1   
    12     6     7 1   
    13     7     8 1   
    14     7    21 1   
    15     8     9 2   
    16     8    16 1   
    17    10    11 1   
    18    10    28 1   
    19    10    29 1   
    20    11    12 1   
    21    11    14 1   
    22    11    22 1   
    23    12    13 1   
    24    12    27 1   
    25    14    15 1   
    26    14    16 1   
    27    14    23 1   
    28    15    24 1   
    29    16    17 1   
    30    17    25 1   
@<TRIPOS>SUBSTRUCTURE
     1 R4K         1 TEMP              0 ****  ****    0 ROOT
