@<TRIPOS>MOLECULE
R4K
   29    30     1     0     0
SMALL
No Charge or Current Charge


@<TRIPOS>ATOM
      1 C50         59.1460  -138.2050    39.1970 ca         1 R4K      -0.102300
      2 C51         58.5880  -137.9980    40.4700 ca         1 R4K      -0.041000
      3 C52         57.3080  -137.4060    40.5550 ca         1 R4K      -0.176000
      4 C53         56.6050  -137.0320    39.3850 ca         1 R4K      -0.101000
      5 C54         57.1780  -137.2500    38.1150 ca         1 R4K      -0.188000
      6 C55         58.4450  -137.8360    38.0660 ca         1 R4K       0.085600
      7 N31         59.2150  -138.1560    36.9630 ns         1 R4K      -0.463100
      8 C32         60.4360  -138.7310    37.2110 c          1 R4K       0.724500
      9 O33         61.2040  -139.1590    36.3560 o          1 R4K      -0.622500
     10 N           61.7950  -136.1090    37.6900 n8         1 R4K      -0.913800
     11 CA          61.7660  -136.4940    39.1610 c3         1 R4K       0.015500
     12 C           62.8910  -135.8370    40.0650 c          1 R4K       0.917600
     13 O           64.0670  -136.0090    39.7510 o          1 R4K      -0.828800
     14 CB          61.7460  -138.0440    39.3730 c3         1 R4K       0.168100
     15 O34         61.8310  -138.3330    40.7770 oh         1 R4K      -0.564800
     16 C29         60.5000  -138.8120    38.8050 c5         1 R4K       0.089100
     17 O30         60.5760  -140.1940    39.2440 oh         1 R4K      -0.602800
     18 H51         59.1250  -138.2870    41.3700 ha         1 R4K       0.153000
     19 H52         56.8580  -137.2360    41.5310 ha         1 R4K       0.124000
     20 H53         55.6190  -136.5780    39.4650 ha         1 R4K       0.115000
     21 H31         58.8940  -138.0050    36.0160 hn         1 R4K       0.325500
     22 HA          60.8160  -136.1110    39.5570 h1         1 R4K       0.055700
     23 HB2         62.6360  -138.4540    38.8750 h1         1 R4K       0.054700
     24 H34         61.4520  -139.2350    40.8720 ho         1 R4K       0.385000
     25 H30         61.2290  -140.6520    38.6690 ho         1 R4K       0.414000
     26 H54         56.6520  -136.9710    37.2050 ha         1 R4K       0.124000
     27 OXT         62.5580  -135.0120    40.9120 o          1 R4K      -0.828800
     28 H           61.6900  -135.0920    37.6060 hn         1 R4K       0.340800
     29 H2          62.7370  -136.2860    37.3210 hn         1 R4K       0.340800
@<TRIPOS>BOND
     1     1     2 ar  
     2     1     6 ar  
     3     1    16 1   
     4     2     3 ar  
     5     2    18 1   
     6     3     4 ar  
     7     3    19 1   
     8     4     5 ar  
     9     4    20 1   
    10     5     6 ar  
    11     5    26 1   
    12     6     7 1   
    13     7     8 1   
    14     7    21 1   
    15     8     9 2   
    16     8    16 1   
    17    10    11 1   
    18    10    28 1   
    19    10    29 1   
    20    11    12 1   
    21    11    14 1   
    22    11    22 1   
    23    12    13 1   
    24    12    27 1   
    25    14    15 1   
    26    14    16 1   
    27    14    23 1   
    28    15    24 1   
    29    16    17 1   
    30    17    25 1   
@<TRIPOS>SUBSTRUCTURE
     1 R4K         1 TEMP              0 ****  ****    0 ROOT
