@<TRIPOS>MOLECULE
R4L
   90    96     1     0     0
SMALL
abcg2


@<TRIPOS>ATOM
      1 CAP        -45.6490     1.5020   -11.0170 c5         1 R4L      -0.085900
      2 CAN        -45.6880     0.8350    -9.6420 c5         1 R4L      -0.078900
      3 CAO        -45.9210     1.9980    -8.6560 c5         1 R4L      -0.078900
      4 CAQ        -45.4490     3.2760    -9.3950 c5         1 R4L      -0.085900
      5 CBO        -44.8710     2.7950   -10.7420 c5         1 R4L       0.222500
      6 NBT        -45.0440     3.8080   -11.8000 na         1 R4L      -0.788100
      7 CBK        -44.5790     5.1360   -11.5570 ca         1 R4L       0.304000
      8 CAK        -43.5050     5.3670   -10.6950 ca         1 R4L      -0.150000
      9 CAG        -43.0320     6.6540   -10.4810 ca         1 R4L      -0.074000
     10 CAF        -43.6180     7.7350   -11.1330 ca         1 R4L      -0.129000
     11 CAJ        -44.6850     7.5120   -11.9870 ca         1 R4L      -0.047000
     12 CBJ        -45.1720     6.2220   -12.2150 ca         1 R4L      -0.148600
     13 CBI        -46.3730     6.1060   -13.0940 c          1 R4L       0.588600
     14 OAE        -47.2520     6.9680   -13.0480 o          1 R4L      -0.556000
     15 NBS        -46.4660     5.0600   -13.9630 n          1 R4L      -0.296000
     16 CAC        -47.6570     4.9960   -14.8180 c3         1 R4L       0.090300
     17 C5         -45.4520     4.0980   -14.1750 ca         1 R4L      -0.103400
     18 C6         -45.1130     3.6750   -15.4560 ca         1 R4L       0.133900
     19 N1         -44.2980     2.6500   -15.7000 nb         1 R4L      -0.226000
     20 C4         -44.8260     3.4120   -13.1240 ca         1 R4L       0.376900
     21 N3         -44.0090     2.3970   -13.3570 nb         1 R4L      -0.276000
     22 C2         -43.8050     2.0240   -14.6200 ca         1 R4L       0.388900
     23 NBB        -43.0350     0.9160   -14.8650 nu         1 R4L      -0.917900
     24 CBF        -42.5660     0.0030   -13.9120 ca         1 R4L       0.288000
     25 CBH        -42.6200    -1.3700   -14.2350 ca         1 R4L       0.088100
     26 CAM        -42.2100    -2.3190   -13.3090 ca         1 R4L      -0.131000
     27 OBC        -43.1040    -1.6580   -15.4730 os         1 R4L      -0.365100
     28 CAA        -43.1690    -3.0270   -15.8740 c3         1 R4L       0.151900
     29 CAI        -42.0410     0.3840   -12.6810 ca         1 R4L      -0.092000
     30 CAH        -41.6540    -0.5690   -11.7500 ca         1 R4L      -0.103000
     31 CBE        -41.7590    -1.9230   -12.0480 ca         1 R4L      -0.123600
     32 CBD        -41.3350    -2.9790   -11.0750 c          1 R4L       0.614700
     33 OAD        -40.5190    -3.8400   -11.4290 o          1 R4L      -0.604100
     34 NBQ        -41.8490    -2.9310    -9.8250 n          1 R4L      -0.408800
     35 CAU        -41.3840    -3.8680    -8.8030 c6         1 R4L       0.098500
     36 CAS        -42.4980    -4.8230    -8.3810 c6         1 R4L      -0.114400
     37 CAT        -43.0160    -2.1470    -9.4160 c6         1 R4L       0.098500
     38 CAR        -44.1650    -3.0600    -8.9900 c6         1 R4L      -0.114400
     39 CBN        -43.7210    -4.0440    -7.8950 c6         1 R4L       0.195500
     40 NBR        -44.7640    -4.9340    -7.3800 n3         1 R4L      -0.744600
     41 CAX        -45.8260    -4.2380    -6.6280 c6         1 R4L       0.161800
     42 CAV        -47.1680    -4.2560    -7.3440 c6         1 R4L       0.149300
     43 NBP        -47.6430    -5.6340    -7.5030 n3         1 R4L      -0.723600
     44 CAB        -48.6830    -5.7120    -8.5160 c3         1 R4L       0.153100
     45 CAW        -46.5290    -6.5750    -7.7370 c6         1 R4L       0.149300
     46 CAY        -45.3010    -5.9050    -8.3380 c6         1 R4L       0.161800
     47 HAP1       -45.1840     0.8820   -11.7780 hc         1 R4L       0.057950
     48 HAP2       -46.6590     1.7600   -11.3520 hc         1 R4L       0.057950
     49 HAN1       -46.4500     0.0590    -9.5730 hc         1 R4L       0.042450
     50 HAN2       -44.7240     0.3620    -9.4440 hc         1 R4L       0.042450
     51 HBO        -43.8130     2.5370   -10.6250 h1         1 R4L       0.045700
     52 HAO1       -46.9790     2.0810    -8.4040 hc         1 R4L       0.042450
     53 HAO2       -45.3800     1.8470    -7.7220 hc         1 R4L       0.042450
     54 HAQ1       -46.2930     3.9400    -9.5950 hc         1 R4L       0.057950
     55 HAQ2       -44.7260     3.8410    -8.8120 hc         1 R4L       0.057950
     56 HAK        -43.0300     4.5360   -10.1960 ha         1 R4L       0.123000
     57 HAG        -42.1970     6.8080    -9.8090 ha         1 R4L       0.118000
     58 HAF        -43.2490     8.7390   -10.9730 ha         1 R4L       0.122000
     59 HAJ        -45.1650     8.3390   -12.4920 ha         1 R4L       0.135000
     60 HAC1       -47.7920     3.9690   -15.1470 h1         1 R4L       0.049700
     61 HAC2       -48.5220     5.3150   -14.2430 h1         1 R4L       0.049700
     62 HAC3       -47.5570     5.6470   -15.6880 h1         1 R4L       0.049700
     63 H6         -45.5430     4.1680   -16.3200 h4         1 R4L       0.032100
     64 HBB        -43.0950     0.5730   -15.8120 hn         1 R4L       0.525000
     65 HAI        -41.9640     1.4320   -12.4440 ha         1 R4L       0.142000
     66 HAM        -42.2610    -3.3720   -13.5420 ha         1 R4L       0.133000
     67 HAA1       -43.5690    -3.0210   -16.8850 h1         1 R4L       0.046700
     68 HAA2       -42.1760    -3.4810   -15.8720 h1         1 R4L       0.046700
     69 HAA3       -43.8330    -3.5940   -15.2170 h1         1 R4L       0.046700
     70 HAH        -41.2740    -0.2500   -10.7890 ha         1 R4L       0.122000
     71 HAU1       -40.5320    -4.4100    -9.2010 h1         1 R4L       0.058450
     72 HAU2       -41.0510    -3.2820    -7.9400 h1         1 R4L       0.058450
     73 HAT1       -42.7240    -1.5010    -8.5820 h1         1 R4L       0.058450
     74 HAT2       -43.3310    -1.5100   -10.2330 h1         1 R4L       0.058450
     75 HAS1       -42.7610    -5.4540    -9.2330 hc         1 R4L       0.054200
     76 HAS2       -42.1370    -5.4760    -7.5830 hc         1 R4L       0.054200
     77 HBN        -43.3940    -3.4440    -7.0380 h1         1 R4L       0.053700
     78 HAR1       -44.9850    -2.4340    -8.6330 hc         1 R4L       0.054200
     79 HAR2       -44.5240    -3.6070    -9.8650 hc         1 R4L       0.054200
     80 HAX1       -45.9500    -4.7050    -5.6450 h1         1 R4L       0.044700
     81 HAX2       -45.5260    -3.2050    -6.4520 h1         1 R4L       0.044700
     82 HAY1       -45.5760    -5.4490    -9.3010 h1         1 R4L       0.044700
     83 HAY2       -44.5460    -6.6640    -8.5510 h1         1 R4L       0.044700
     84 HAV1       -47.9060    -3.6850    -6.7730 h1         1 R4L       0.046200
     85 HAV2       -47.0640    -3.7570    -8.3220 h1         1 R4L       0.046200
     86 HAB1       -49.0780    -6.7270    -8.5710 h1         1 R4L       0.030367
     87 HAB2       -49.5020    -5.0410    -8.2490 h1         1 R4L       0.030367
     88 HAB3       -48.3270    -5.4240    -9.5200 h1         1 R4L       0.030367
     89 HAW1       -46.2400    -7.0420    -6.7900 h1         1 R4L       0.046200
     90 HAW2       -46.8730    -7.3720    -8.3970 h1         1 R4L       0.046200
@<TRIPOS>BOND
     1     1     2 1   
     2     1     5 1   
     3     1    47 1   
     4     1    48 1   
     5     2     3 1   
     6     2    49 1   
     7     2    50 1   
     8     3     4 1   
     9     3    52 1   
    10     3    53 1   
    11     4     5 1   
    12     4    54 1   
    13     4    55 1   
    14     5     6 1   
    15     5    51 1   
    16     6     7 1   
    17     6    20 1   
    18     7     8 ar  
    19     7    12 ar  
    20     8     9 ar  
    21     8    56 1   
    22     9    10 ar  
    23     9    57 1   
    24    10    11 ar  
    25    10    58 1   
    26    11    12 ar  
    27    11    59 1   
    28    12    13 1   
    29    13    14 2   
    30    13    15 1   
    31    15    16 1   
    32    15    17 1   
    33    16    60 1   
    34    16    61 1   
    35    16    62 1   
    36    17    18 ar  
    37    17    20 ar  
    38    18    19 ar  
    39    18    63 1   
    40    19    22 ar  
    41    20    21 ar  
    42    21    22 ar  
    43    22    23 1   
    44    23    24 1   
    45    23    64 1   
    46    24    25 ar  
    47    24    29 ar  
    48    25    26 ar  
    49    25    27 1   
    50    26    31 ar  
    51    26    66 1   
    52    27    28 1   
    53    28    67 1   
    54    28    68 1   
    55    28    69 1   
    56    29    30 ar  
    57    29    65 1   
    58    30    31 ar  
    59    30    70 1   
    60    31    32 1   
    61    32    33 2   
    62    32    34 1   
    63    34    35 1   
    64    34    37 1   
    65    35    36 1   
    66    35    71 1   
    67    35    72 1   
    68    36    39 1   
    69    36    75 1   
    70    36    76 1   
    71    37    38 1   
    72    37    73 1   
    73    37    74 1   
    74    38    39 1   
    75    38    78 1   
    76    38    79 1   
    77    39    40 1   
    78    39    77 1   
    79    40    41 1   
    80    40    46 1   
    81    41    42 1   
    82    41    80 1   
    83    41    81 1   
    84    42    43 1   
    85    42    84 1   
    86    42    85 1   
    87    43    44 1   
    88    43    45 1   
    89    44    86 1   
    90    44    87 1   
    91    44    88 1   
    92    45    46 1   
    93    45    89 1   
    94    45    90 1   
    95    46    82 1   
    96    46    83 1   
@<TRIPOS>SUBSTRUCTURE
     1 R4L         1 TEMP              0 ****  ****    0 ROOT
