@<TRIPOS>MOLECULE
R4L
   90    96     1     0     0
SMALL
No Charge or Current Charge


@<TRIPOS>ATOM
      1 CAP        -47.6310     3.2870   -11.8010 c5         1 R4L      -0.085900
      2 CAN        -48.6600     3.1170   -10.6490 c5         1 R4L      -0.078900
      3 CAO        -48.2980     4.2420    -9.6290 c5         1 R4L      -0.078900
      4 CAQ        -47.0660     4.9580   -10.2510 c5         1 R4L      -0.085900
      5 CBO        -46.3820     3.8190   -11.0510 c5         1 R4L       0.222500
      6 NBT        -45.2740     4.2520   -11.9140 na         1 R4L      -0.788100
      7 CBK        -44.3870     5.2500   -11.5730 ca         1 R4L       0.304000
      8 CAK        -43.4800     5.0130   -10.5250 ca         1 R4L      -0.150000
      9 CAG        -42.5840     6.0120   -10.1190 ca         1 R4L      -0.074000
     10 CAF        -42.6030     7.2580   -10.7610 ca         1 R4L      -0.129000
     11 CAJ        -43.5090     7.4980   -11.8070 ca         1 R4L      -0.047000
     12 CBJ        -44.4030     6.4900   -12.2390 ca         1 R4L      -0.148600
     13 CBI        -45.3760     6.8100   -13.3520 c          1 R4L       0.588600
     14 OAE        -45.7250     7.9770   -13.5110 o          1 R4L      -0.556000
     15 NBS        -45.9030     5.7920   -14.2030 n          1 R4L      -0.296000
     16 CAC        -46.8840     6.2120   -15.2330 c3         1 R4L       0.090300
     17 C5         -45.4140     4.4270   -14.2820 ca         1 R4L      -0.103400
     18 C6         -45.0540     3.8810   -15.5340 ca         1 R4L       0.133900
     19 N1         -44.4640     2.6780   -15.6510 nb         1 R4L      -0.226000
     20 C4         -45.0070     3.6930   -13.1440 ca         1 R4L       0.376900
     21 N3         -44.4230     2.4870   -13.2680 nb         1 R4L      -0.276000
     22 C2         -44.1820     2.0400   -14.5070 ca         1 R4L       0.388900
     23 NBB        -43.6090     0.7860   -14.6660 nu         1 R4L      -0.917900
     24 CBF        -43.0970    -0.2020   -13.8010 ca         1 R4L       0.288000
     25 CBH        -43.0130    -1.5390   -14.2700 ca         1 R4L       0.088100
     26 CAM        -42.5000    -2.5520   -13.4270 ca         1 R4L      -0.131000
     27 OBC        -43.4450    -1.8150   -15.5630 os         1 R4L      -0.365100
     28 CAA        -43.4040    -3.1390   -16.1280 c3         1 R4L       0.151900
     29 CAI        -42.6220     0.0980   -12.5090 ca         1 R4L      -0.092000
     30 CAH        -42.1130    -0.9120   -11.6770 ca         1 R4L      -0.103000
     31 CBE        -42.0700    -2.2540   -12.1150 ca         1 R4L      -0.123600
     32 CBD        -41.5030    -3.3590   -11.2420 c          1 R4L       0.614700
     33 OAD        -40.8690    -4.2790   -11.7460 o          1 R4L      -0.604100
     34 NBQ        -41.6320    -3.2550    -9.8360 n          1 R4L      -0.408800
     35 CAU        -40.8400    -4.1220    -8.9220 c6         1 R4L       0.098500
     36 CAS        -41.6950    -5.2690    -8.3410 c6         1 R4L      -0.114400
     37 CAT        -42.8530    -2.6920    -9.1910 c6         1 R4L       0.098500
     38 CAR        -43.7480    -3.8030    -8.5910 c6         1 R4L      -0.114400
     39 CBN        -42.9400    -4.7020    -7.6130 c6         1 R4L       0.195500
     40 NBR        -43.7480    -5.7790    -6.9580 n3         1 R4L      -0.744600
     41 CAX        -44.8230    -5.2670    -6.0340 c6         1 R4L       0.161800
     42 CAV        -46.2650    -5.4690    -6.6060 c6         1 R4L       0.149300
     43 NBP        -46.5950    -6.9130    -6.8630 n3         1 R4L      -0.723600
     44 CAB        -47.7160    -7.0760    -7.8150 c3         1 R4L       0.153100
     45 CAW        -45.3730    -7.7190    -7.2170 c6         1 R4L       0.149300
     46 CAY        -44.2520    -6.8600    -7.8830 c6         1 R4L       0.161800
     47 HAP1       -47.4370     2.3430   -12.3210 hc         1 R4L       0.057950
     48 HAP2       -47.9850     4.0040   -12.5520 hc         1 R4L       0.057950
     49 HAN1       -49.6910     3.2010   -11.0110 hc         1 R4L       0.042450
     50 HAN2       -48.5660     2.1290   -10.1830 hc         1 R4L       0.042450
     51 HBO        -46.0080     3.0500   -10.3600 h1         1 R4L       0.045700
     52 HAO1       -49.1300     4.9380    -9.4680 hc         1 R4L       0.042450
     53 HAO2       -48.0510     3.8120    -8.6510 hc         1 R4L       0.042450
     54 HAQ1       -47.3710     5.7810   -10.9090 hc         1 R4L       0.057950
     55 HAQ2       -46.4080     5.3840    -9.4860 hc         1 R4L       0.057950
     56 HAK        -43.4770     4.0490   -10.0240 ha         1 R4L       0.123000
     57 HAG        -41.8840     5.8240    -9.3070 ha         1 R4L       0.118000
     58 HAF        -41.9160     8.0420   -10.4470 ha         1 R4L       0.122000
     59 HAJ        -43.5070     8.4730   -12.2910 ha         1 R4L       0.135000
     60 HAC1       -47.3710     5.3350   -15.6760 h1         1 R4L       0.049700
     61 HAC2       -47.6600     6.8420   -14.7800 h1         1 R4L       0.049700
     62 HAC3       -46.3730     6.7780   -16.0230 h1         1 R4L       0.049700
     63 H6         -45.2410     4.4140   -16.4650 h4         1 R4L       0.032100
     64 HBB        -43.6930     0.4400   -15.6230 hn         1 R4L       0.525000
     65 HAI        -42.6190     1.1190   -12.1450 ha         1 R4L       0.142000
     66 HAM        -42.4360    -3.5800   -13.7710 ha         1 R4L       0.133000
     67 HAA1       -43.7920    -3.1260   -17.1550 h1         1 R4L       0.046700
     68 HAA2       -42.3750    -3.5190   -16.1590 h1         1 R4L       0.046700
     69 HAA3       -44.0200    -3.8330   -15.5430 h1         1 R4L       0.046700
     70 HAH        -41.7310    -0.6410   -10.6950 ha         1 R4L       0.122000
     71 HAU1       -39.9670    -4.5390    -9.4430 h1         1 R4L       0.058450
     72 HAU2       -40.4530    -3.5050    -8.0990 h1         1 R4L       0.058450
     73 HAT1       -42.5470    -1.9960    -8.3960 h1         1 R4L       0.058450
     74 HAT2       -43.4580    -2.1230    -9.9080 h1         1 R4L       0.058450
     75 HAS1       -41.9930    -5.9380    -9.1590 hc         1 R4L       0.054200
     76 HAS2       -41.0900    -5.8640    -7.6440 hc         1 R4L       0.054200
     77 HBN        -42.5600    -4.0430    -6.8180 h1         1 R4L       0.053700
     78 HAR1       -44.5960    -3.3350    -8.0760 hc         1 R4L       0.054200
     79 HAR2       -44.1650    -4.3990    -9.4120 hc         1 R4L       0.054200
     80 HAX1       -44.7640    -5.8070    -5.0770 h1         1 R4L       0.044700
     81 HAX2       -44.6700    -4.2040    -5.7950 h1         1 R4L       0.044700
     82 HAY1       -44.6630    -6.4350    -8.8090 h1         1 R4L       0.044700
     83 HAY2       -43.4260    -7.5250    -8.1760 h1         1 R4L       0.044700
     84 HAV1       -46.9940    -5.0350    -5.9060 h1         1 R4L       0.046200
     85 HAV2       -46.3410    -4.8900    -7.5380 h1         1 R4L       0.046200
     86 HAB1       -47.9970    -8.1330    -7.9060 h1         1 R4L       0.030367
     87 HAB2       -48.5980    -6.5190    -7.4720 h1         1 R4L       0.030367
     88 HAB3       -47.4400    -6.7050    -8.8110 h1         1 R4L       0.030367
     89 HAW1       -44.9550    -8.1680    -6.3050 h1         1 R4L       0.046200
     90 HAW2       -45.6330    -8.5560    -7.8820 h1         1 R4L       0.046200
@<TRIPOS>BOND
     1     1     2 1   
     2     1     5 1   
     3     1    47 1   
     4     1    48 1   
     5     2     3 1   
     6     2    49 1   
     7     2    50 1   
     8     3     4 1   
     9     3    52 1   
    10     3    53 1   
    11     4     5 1   
    12     4    54 1   
    13     4    55 1   
    14     5     6 1   
    15     5    51 1   
    16     6     7 1   
    17     6    20 1   
    18     7     8 ar  
    19     7    12 ar  
    20     8     9 ar  
    21     8    56 1   
    22     9    10 ar  
    23     9    57 1   
    24    10    11 ar  
    25    10    58 1   
    26    11    12 ar  
    27    11    59 1   
    28    12    13 1   
    29    13    14 2   
    30    13    15 1   
    31    15    16 1   
    32    15    17 1   
    33    16    60 1   
    34    16    61 1   
    35    16    62 1   
    36    17    18 ar  
    37    17    20 ar  
    38    18    19 ar  
    39    18    63 1   
    40    19    22 ar  
    41    20    21 ar  
    42    21    22 ar  
    43    22    23 1   
    44    23    24 1   
    45    23    64 1   
    46    24    25 ar  
    47    24    29 ar  
    48    25    26 ar  
    49    25    27 1   
    50    26    31 ar  
    51    26    66 1   
    52    27    28 1   
    53    28    67 1   
    54    28    68 1   
    55    28    69 1   
    56    29    30 ar  
    57    29    65 1   
    58    30    31 ar  
    59    30    70 1   
    60    31    32 1   
    61    32    33 2   
    62    32    34 1   
    63    34    35 1   
    64    34    37 1   
    65    35    36 1   
    66    35    71 1   
    67    35    72 1   
    68    36    39 1   
    69    36    75 1   
    70    36    76 1   
    71    37    38 1   
    72    37    73 1   
    73    37    74 1   
    74    38    39 1   
    75    38    78 1   
    76    38    79 1   
    77    39    40 1   
    78    39    77 1   
    79    40    41 1   
    80    40    46 1   
    81    41    42 1   
    82    41    80 1   
    83    41    81 1   
    84    42    43 1   
    85    42    84 1   
    86    42    85 1   
    87    43    44 1   
    88    43    45 1   
    89    44    86 1   
    90    44    87 1   
    91    44    88 1   
    92    45    46 1   
    93    45    89 1   
    94    45    90 1   
    95    46    82 1   
    96    46    83 1   
@<TRIPOS>SUBSTRUCTURE
     1 R4L         1 TEMP              0 ****  ****    0 ROOT
