@<TRIPOS>MOLECULE
R4M
   48    49     1     0     0
SMALL
No Charge or Current Charge


@<TRIPOS>ATOM
      1 C2          -1.6070     1.2320    -1.0170 c6         1 R4M      -0.038200
      2 C1          -1.0930    -0.1140    -1.5460 c6         1 R4M      -0.078400
      3 C18         -2.1350    -1.2360    -1.3260 c6         1 R4M      -0.016400
      4 C4          -1.4890    -2.6190    -1.6350 c3         1 R4M      -0.090100
      5 C5          -2.8080    -1.1790     0.0680 ca         1 R4M      -0.044300
      6 C21         -3.6360    -2.2460     0.4840 ca         1 R4M      -0.115000
      7 C3          -4.2850    -2.2150     1.7260 ca         1 R4M      -0.116000
      8 C16         -4.1320    -1.1050     2.5660 ca         1 R4M      -0.126000
      9 C17         -3.3320    -0.0260     2.1610 ca         1 R4M      -0.107000
     10 C6          -2.6590    -0.0450     0.9180 ca         1 R4M      -0.040800
     11 C7          -1.8230     1.1300     0.4960 ce         1 R4M      -0.048400
     12 C8          -1.2710     2.0580     1.3400 cf         1 R4M      -0.171000
     13 C9          -0.4500     3.2080     0.9710 cf         1 R4M      -0.115200
     14 C19         -1.0990     4.5680     1.1510 c3         1 R4M      -0.042900
     15 C10          0.8450     3.1030     0.5840 c2         1 R4M      -0.183200
     16 C11          1.6670     1.8320     0.4390 c3         1 R4M      -0.050200
     17 C12          2.3710     1.7400    -0.9340 c3         1 R4M      -0.029200
     18 C13          3.1720     0.4550    -1.1160 c2         1 R4M      -0.166400
     19 C20          4.4410     0.4260    -0.2710 c3         1 R4M      -0.027900
     20 C14          2.7550    -0.5370    -1.9520 ce         1 R4M      -0.242200
     21 C15          3.3980    -1.8640    -2.2380 c          1 R4M       0.699200
     22 O1           4.4290    -2.1890    -1.6710 o          1 R4M      -0.731000
     23 O2           2.8370    -2.5840    -3.0490 o          1 R4M      -0.731000
     24 H1          -0.8960     2.0230    -1.2840 hc         1 R4M       0.048200
     25 H2          -2.5540     1.4950    -1.5090 hc         1 R4M       0.048200
     26 H3          -0.8490    -0.0300    -2.6140 hc         1 R4M       0.065200
     27 H4          -0.1580    -0.3700    -1.0300 hc         1 R4M       0.065200
     28 H5          -2.9280    -1.1010    -2.0750 hc         1 R4M       0.042700
     29 H6          -0.7690    -2.9020    -0.8580 hc         1 R4M       0.043033
     30 H7          -2.2350    -3.4170    -1.7120 hc         1 R4M       0.043033
     31 H8          -0.9520    -2.5980    -2.5920 hc         1 R4M       0.043033
     32 H9          -3.7950    -3.1070    -0.1590 ha         1 R4M       0.110000
     33 H10         -4.9170    -3.0460     2.0320 ha         1 R4M       0.102000
     34 H11         -4.6440    -1.0730     3.5250 ha         1 R4M       0.101000
     35 H12         -3.2580     0.8330     2.8200 ha         1 R4M       0.105000
     36 H13         -1.4510     1.9580     2.4090 ha         1 R4M       0.167000
     37 H14         -1.9180     4.5320     1.8790 hc         1 R4M       0.031033
     38 H15         -0.3790     5.3150     1.5060 hc         1 R4M       0.031033
     39 H16         -1.5150     4.9300     0.2030 hc         1 R4M       0.031033
     40 H17          1.4020     4.0140     0.3630 ha         1 R4M       0.156000
     41 H18          2.4200     1.8010     1.2340 hc         1 R4M       0.052700
     42 H19          1.0460     0.9410     0.5780 hc         1 R4M       0.052700
     43 H20          1.6080     1.8210    -1.7180 hc         1 R4M       0.025200
     44 H21          3.0230     2.6130    -1.0650 hc         1 R4M       0.025200
     45 H22          4.3670    -0.3260     0.5230 hc         1 R4M       0.027700
     46 H23          5.3200     0.1910    -0.8830 hc         1 R4M       0.027700
     47 H24          4.6460     1.3900     0.2110 hc         1 R4M       0.027700
     48 H25          1.8330    -0.3910    -2.5090 ha         1 R4M       0.138000
@<TRIPOS>BOND
     1     1     2 1   
     2     1    11 1   
     3     1    24 1   
     4     1    25 1   
     5     2     3 1   
     6     2    26 1   
     7     2    27 1   
     8     3     4 1   
     9     3     5 1   
    10     3    28 1   
    11     4    29 1   
    12     4    30 1   
    13     4    31 1   
    14     5     6 ar  
    15     5    10 ar  
    16     6     7 ar  
    17     6    32 1   
    18     7     8 ar  
    19     7    33 1   
    20     8     9 ar  
    21     8    34 1   
    22     9    10 ar  
    23     9    35 1   
    24    10    11 1   
    25    11    12 2   
    26    12    13 1   
    27    12    36 1   
    28    13    14 1   
    29    13    15 2   
    30    14    37 1   
    31    14    38 1   
    32    14    39 1   
    33    15    16 1   
    34    15    40 1   
    35    16    17 1   
    36    16    41 1   
    37    16    42 1   
    38    17    18 1   
    39    17    43 1   
    40    17    44 1   
    41    18    19 1   
    42    18    20 2   
    43    19    45 1   
    44    19    46 1   
    45    19    47 1   
    46    20    21 1   
    47    20    48 1   
    48    21    22 1   
    49    21    23 1   
@<TRIPOS>SUBSTRUCTURE
     1 R4M         1 TEMP              0 ****  ****    0 ROOT
