@<TRIPOS>MOLECULE
R4M
   48    49     1     0     0
SMALL
abcg2


@<TRIPOS>ATOM
      1 C2          -1.5340     1.1830    -1.0220 c6         1 R4M      -0.038200
      2 C1          -1.0160    -0.1700    -1.4860 c6         1 R4M      -0.078400
      3 C18         -2.0300    -1.2870    -1.2580 c6         1 R4M      -0.016400
      4 C4          -1.3330    -2.6410    -1.3980 c3         1 R4M      -0.090100
      5 C5          -2.7790    -1.1450     0.0550 ca         1 R4M      -0.044300
      6 C21         -3.6350    -2.1710     0.4600 ca         1 R4M      -0.115000
      7 C3          -4.3670    -2.0920     1.6320 ca         1 R4M      -0.116000
      8 C16         -4.2630    -0.9580     2.4280 ca         1 R4M      -0.126000
      9 C17         -3.4300     0.0740     2.0370 ca         1 R4M      -0.107000
     10 C6          -2.6710    -0.0010     0.8630 ca         1 R4M      -0.040800
     11 C7          -1.7940     1.1170     0.4520 ce         1 R4M      -0.048400
     12 C8          -1.2520     1.9600     1.3400 cf         1 R4M      -0.171000
     13 C9          -0.3970     3.1290     1.0430 cf         1 R4M      -0.115200
     14 C19         -1.0680     4.4570     1.2610 c3         1 R4M      -0.042900
     15 C10          0.8850     3.0420     0.6760 c2         1 R4M      -0.183200
     16 C11          1.6850     1.7970     0.4650 c3         1 R4M      -0.050200
     17 C12          2.2490     1.7060    -0.9620 c3         1 R4M      -0.029200
     18 C13          3.0940     0.4780    -1.1770 c2         1 R4M      -0.166400
     19 C20          4.3350     0.4170    -0.3320 c3         1 R4M      -0.027900
     20 C14          2.7140    -0.4460    -2.0690 ce         1 R4M      -0.242200
     21 C15          3.3940    -1.7390    -2.4400 c          1 R4M       0.699200
     22 O1           4.2560    -2.2170    -1.6720 o          1 R4M      -0.731000
     23 O2           3.0150    -2.2430    -3.5200 o          1 R4M      -0.731000
     24 H1          -0.8210     1.9730    -1.2580 hc         1 R4M       0.048200
     25 H2          -2.4660     1.4200    -1.5480 hc         1 R4M       0.048200
     26 H3          -0.7540    -0.1370    -2.5460 hc         1 R4M       0.065200
     27 H4          -0.0890    -0.4000    -0.9500 hc         1 R4M       0.065200
     28 H5          -2.7840    -1.2160    -2.0530 hc         1 R4M       0.042700
     29 H6          -0.6130    -2.7900    -0.5910 hc         1 R4M       0.043033
     30 H7          -2.0280    -3.4800    -1.3890 hc         1 R4M       0.043033
     31 H8          -0.7850    -2.6810    -2.3410 hc         1 R4M       0.043033
     32 H9          -3.7340    -3.0530    -0.1610 ha         1 R4M       0.110000
     33 H10         -5.0230    -2.9040     1.9170 ha         1 R4M       0.102000
     34 H11         -4.8410    -0.8710     3.3390 ha         1 R4M       0.101000
     35 H12         -3.3850     0.9690     2.6450 ha         1 R4M       0.105000
     36 H13         -1.4880     1.8320     2.3940 ha         1 R4M       0.167000
     37 H14         -1.4930     4.5220     2.2650 hc         1 R4M       0.031033
     38 H15         -0.3750     5.2880     1.1310 hc         1 R4M       0.031033
     39 H16         -1.8980     4.5900     0.5630 hc         1 R4M       0.031033
     40 H17          1.4250     3.9740     0.5190 ha         1 R4M       0.156000
     41 H18          2.5160     1.7910     1.1770 hc         1 R4M       0.052700
     42 H19          1.0860     0.9090     0.6760 hc         1 R4M       0.052700
     43 H20          1.4220     1.7270    -1.6760 hc         1 R4M       0.025200
     44 H21          2.8550     2.5990    -1.1540 hc         1 R4M       0.025200
     45 H22          4.1200    -0.0030     0.6540 hc         1 R4M       0.027700
     46 H23          5.1100    -0.1960    -0.7790 hc         1 R4M       0.027700
     47 H24          4.7270     1.4220    -0.1630 hc         1 R4M       0.027700
     48 H25          1.8000    -0.2450    -2.6220 ha         1 R4M       0.138000
@<TRIPOS>BOND
     1     1     2 1   
     2     1    11 1   
     3     1    24 1   
     4     1    25 1   
     5     2     3 1   
     6     2    26 1   
     7     2    27 1   
     8     3     4 1   
     9     3     5 1   
    10     3    28 1   
    11     4    29 1   
    12     4    30 1   
    13     4    31 1   
    14     5     6 ar  
    15     5    10 ar  
    16     6     7 ar  
    17     6    32 1   
    18     7     8 ar  
    19     7    33 1   
    20     8     9 ar  
    21     8    34 1   
    22     9    10 ar  
    23     9    35 1   
    24    10    11 1   
    25    11    12 2   
    26    12    13 1   
    27    12    36 1   
    28    13    14 1   
    29    13    15 2   
    30    14    37 1   
    31    14    38 1   
    32    14    39 1   
    33    15    16 1   
    34    15    40 1   
    35    16    17 1   
    36    16    41 1   
    37    16    42 1   
    38    17    18 1   
    39    17    43 1   
    40    17    44 1   
    41    18    19 1   
    42    18    20 2   
    43    19    45 1   
    44    19    46 1   
    45    19    47 1   
    46    20    21 1   
    47    20    48 1   
    48    21    22 1   
    49    21    23 1   
@<TRIPOS>SUBSTRUCTURE
     1 R4M         1 TEMP              0 ****  ****    0 ROOT
