@<TRIPOS>MOLECULE
R4N
   54    58     1     0     0
SMALL
abcg2


@<TRIPOS>ATOM
      1 C1          -7.0190     0.8860     2.6130 ca         1 R4N      -0.111000
      2 C2          -6.3240    -0.3120     2.7330 ca         1 R4N      -0.109000
      3 C3           3.2370     1.1760     2.5160 ca         1 R4N      -0.103000
      4 C4          -0.0830    -2.2430    -0.4500 ca         1 R4N      -0.101000
      5 C5           3.7400     0.5030     1.4140 ca         1 R4N      -0.089000
      6 C6          -6.8180     1.6940     1.5040 ca         1 R4N      -0.105000
      7 C7          -5.4150    -0.6850     1.7550 ca         1 R4N      -0.110000
      8 C8           0.9430    -3.0510     0.0060 ca         1 R4N      -0.070000
      9 C9           2.5810     2.3910     2.3680 ca         1 R4N      -0.097000
     10 C10          1.5390    -0.7350    -1.3810 ca         1 R4N      -0.078000
     11 C11          2.9290     2.2500    -0.0210 ca         1 R4N      -0.089000
     12 C12          0.2130    -1.0880    -1.1680 ca         1 R4N      -0.121600
     13 C13          3.5920     1.0400     0.1380 ca         1 R4N      -0.102300
     14 C14          2.5790    -1.5220    -0.9040 ca         1 R4N      -0.024000
     15 C15         -5.9150     1.3200     0.5170 ca         1 R4N       0.054100
     16 C16         -5.2020     0.1250     0.6470 ca         1 R4N       0.060100
     17 C17          2.2680    -2.7040    -0.2220 ca         1 R4N      -0.138000
     18 C18          2.4370     2.9130     1.0930 ca         1 R4N       0.123000
     19 C19          4.9770    -1.9510    -1.1380 c          1 R4N       0.577000
     20 C20         -0.8400    -0.1670    -1.6980 c          1 R4N       0.613700
     21 C21          4.6430    -3.4190    -1.0710 c6         1 R4N      -0.055400
     22 C22         -5.1030     1.5230    -1.6580 c6         1 R4N       0.124600
     23 C23         -3.8910     0.7430    -1.1930 c6         1 R4N       0.104300
     24 C25         -3.1840     0.0600    -2.3510 c3         1 R4N       0.113000
     25 N26          3.9140    -1.0930    -1.0420 n          1 R4N      -0.226400
     26 N27         -2.0450    -0.7150    -1.9270 ns         1 R4N      -0.494900
     27 O28          6.1210    -1.5650    -1.2700 o          1 R4N      -0.523000
     28 O29         -0.5960     1.0120    -1.9160 o          1 R4N      -0.599100
     29 O30         -5.7500     2.1320    -0.5550 os         1 R4N      -0.325100
     30 O31         -4.2990    -0.2700    -0.2820 os         1 R4N      -0.342100
     31 S32          3.5680    -3.7320     0.3450 ss         1 R4N      -0.120000
     32 CL33         1.6070     4.4200     0.8780 cl         1 R4N      -0.200000
     33 H1          -7.7240     1.1880     3.3760 ha         1 R4N       0.118000
     34 H2          -6.4800    -0.9530     3.5900 ha         1 R4N       0.117000
     35 H6          -7.3620     2.6250     1.3940 ha         1 R4N       0.128000
     36 H7          -4.8600    -1.6110     1.8410 ha         1 R4N       0.123000
     37 H5           4.2420    -0.4470     1.5520 ha         1 R4N       0.125000
     38 H9           2.1900     2.9160     3.2280 ha         1 R4N       0.130000
     39 H4          -1.1020    -2.5280    -0.2250 ha         1 R4N       0.121000
     40 H8           0.7150    -3.9620     0.5430 ha         1 R4N       0.130000
     41 H10          1.7470     0.1710    -1.9320 ha         1 R4N       0.145000
     42 H11          2.7940     2.6700    -1.0100 ha         1 R4N       0.131000
     43 H211         4.1540    -3.7550    -1.9880 h1         1 R4N       0.105200
     44 H212         5.5590    -3.9890    -0.9340 h1         1 R4N       0.105200
     45 H27         -2.1810    -1.7020    -1.7900 hn         1 R4N       0.326500
     46 H221        -4.8080     2.3240    -2.3340 h1         1 R4N       0.066700
     47 H222        -5.7990     0.8610    -2.1880 h1         1 R4N       0.066700
     48 H23         -3.1970     1.4260    -0.6860 h1         1 R4N       0.085700
     49 H251        -3.8740    -0.6090    -2.8670 h1         1 R4N       0.065700
     50 H252        -2.8720     0.8190    -3.0690 h1         1 R4N       0.065700
     51 C24          4.1670     0.3430    -1.0670 c3         1 R4N       0.138300
     52 H3           3.3550     0.7550     3.5060 ha         1 R4N       0.119000
     53 H241         3.7850     0.7880    -1.9880 h1         1 R4N       0.075200
     54 H242         5.2460     0.4780    -1.0920 h1         1 R4N       0.075200
@<TRIPOS>BOND
     1     1     2 ar  
     2     1     6 ar  
     3     1    33 1   
     4     2     7 ar  
     5     2    34 1   
     6     3     5 ar  
     7     3     9 ar  
     8     3    52 1   
     9     4     8 ar  
    10     4    12 ar  
    11     4    39 1   
    12     5    13 ar  
    13     5    37 1   
    14     6    15 ar  
    15     6    35 1   
    16     7    16 ar  
    17     7    36 1   
    18     8    17 ar  
    19     8    40 1   
    20     9    18 ar  
    21     9    38 1   
    22    10    12 ar  
    23    10    14 ar  
    24    10    41 1   
    25    11    13 ar  
    26    11    18 ar  
    27    11    42 1   
    28    12    20 1   
    29    13    51 1   
    30    14    17 ar  
    31    14    25 1   
    32    15    16 ar  
    33    15    29 1   
    34    16    30 1   
    35    17    31 1   
    36    18    32 1   
    37    19    21 1   
    38    19    25 1   
    39    19    27 2   
    40    20    26 1   
    41    20    28 2   
    42    21    31 1   
    43    21    43 1   
    44    21    44 1   
    45    22    23 1   
    46    22    29 1   
    47    22    46 1   
    48    22    47 1   
    49    23    24 1   
    50    23    30 1   
    51    23    48 1   
    52    24    26 1   
    53    24    49 1   
    54    24    50 1   
    55    25    51 1   
    56    26    45 1   
    57    51    53 1   
    58    51    54 1   
@<TRIPOS>SUBSTRUCTURE
     1 R4N         1 TEMP              0 ****  ****    0 ROOT
