@<TRIPOS>MOLECULE
R4N
   54    58     1     0     0
SMALL
No Charge or Current Charge


@<TRIPOS>ATOM
      1 C1          -4.5850     2.3600     3.0200 ca         1 R4N      -0.111000
      2 C2          -3.7290     1.2620     3.2270 ca         1 R4N      -0.109000
      3 C3           1.2490     0.4830     2.7910 ca         1 R4N      -0.103000
      4 C4           0.1730    -2.9450    -1.6770 ca         1 R4N      -0.101000
      5 C5           2.3190     0.3010     1.8960 ca         1 R4N      -0.089000
      6 C6          -5.1020     2.6220     1.7370 ca         1 R4N      -0.105000
      7 C7          -3.3790     0.4270     2.1500 ca         1 R4N      -0.110000
      8 C8           1.3130    -3.5910    -1.1770 ca         1 R4N      -0.070000
      9 C9           0.2000     1.3600     2.4640 ca         1 R4N      -0.097000
     10 C10          1.3830    -0.8400    -1.6390 ca         1 R4N      -0.078000
     11 C11          1.2980     1.8830     0.3550 ca         1 R4N      -0.089000
     12 C12          0.2030    -1.5560    -1.9310 ca         1 R4N      -0.121600
     13 C13          2.3490     0.9950     0.6700 ca         1 R4N      -0.102300
     14 C14          2.4880    -1.4510    -1.0030 ca         1 R4N      -0.024000
     15 C15         -4.7630     1.7850     0.6610 ca         1 R4N       0.054100
     16 C16         -3.8840     0.6920     0.8670 ca         1 R4N       0.060100
     17 C17          2.4710    -2.8580    -0.8700 ca         1 R4N      -0.138000
     18 C18          0.2260     2.0570     1.2460 ca         1 R4N       0.123000
     19 C19          4.9910    -1.2140    -0.6470 c          1 R4N       0.577000
     20 C20         -0.9940    -0.8020    -2.4660 c          1 R4N       0.613700
     21 C21          5.1890    -2.6750    -1.0460 c6         1 R4N      -0.055400
     22 C22         -5.1540     1.0130    -1.5980 c6         1 R4N       0.124600
     23 C23         -3.7390     0.3960    -1.5210 c6         1 R4N       0.104300
     24 C25         -3.5090    -0.7630    -2.5370 c3         1 R4N       0.113000
     25 N26          3.6790    -0.6670    -0.7120 n          1 R4N      -0.226400
     26 N27         -2.2130    -1.4350    -2.3590 ns         1 R4N      -0.494900
     27 O28          5.9630    -0.5530    -0.2990 o          1 R4N      -0.523000
     28 O29         -0.8980     0.3150    -2.9570 o          1 R4N      -0.599100
     29 O30         -5.2900     2.0420    -0.5910 os         1 R4N      -0.325100
     30 O31         -3.5090    -0.1150    -0.1870 os         1 R4N      -0.342100
     31 S32          3.9020    -3.7340    -0.2860 ss         1 R4N      -0.120000
     32 Cl33        -1.0910     3.1470     0.8310 cl         1 R4N      -0.200000
     33 H1          -4.8500     3.0060     3.8540 ha         1 R4N       0.118000
     34 H2          -3.3340     1.0620     4.2200 ha         1 R4N       0.117000
     35 H6          -5.7690     3.4660     1.5790 ha         1 R4N       0.128000
     36 H7          -2.7090    -0.4140     2.3060 ha         1 R4N       0.123000
     37 H5           3.1200    -0.3900     2.1520 ha         1 R4N       0.125000
     38 H9          -0.6290     1.4990     3.1520 ha         1 R4N       0.130000
     39 H4          -0.7090    -3.5410    -1.9000 ha         1 R4N       0.121000
     40 H8           1.2990    -4.6700    -1.0320 ha         1 R4N       0.130000
     41 H10          1.4100     0.2210    -1.8670 ha         1 R4N       0.145000
     42 H11          1.3010     2.4280    -0.5860 ha         1 R4N       0.131000
     43 H211         5.1050    -2.7390    -2.1380 h1         1 R4N       0.105200
     44 H212         6.1840    -3.0050    -0.7240 h1         1 R4N       0.105200
     45 H27         -2.2090    -2.3460    -1.9190 hn         1 R4N       0.326500
     46 H221        -5.3380     1.4490    -2.5900 h1         1 R4N       0.066700
     47 H222        -5.9090     0.2340    -1.4150 h1         1 R4N       0.066700
     48 H23         -3.0060     1.1910    -1.7170 h1         1 R4N       0.085700
     49 H251        -4.3080    -1.5060    -2.4190 h1         1 R4N       0.065700
     50 H252        -3.5660    -0.3620    -3.5580 h1         1 R4N       0.065700
     51 C24          3.4950     0.7630    -0.3180 c3         1 R4N       0.138300
     52 H3           1.2310    -0.0590     3.7340 ha         1 R4N       0.119000
     53 H241         3.3270     1.3510    -1.2290 h1         1 R4N       0.075200
     54 H242         4.4060     1.1630     0.1430 h1         1 R4N       0.075200
@<TRIPOS>BOND
     1     1     2 ar  
     2     1     6 ar  
     3     1    33 1   
     4     2     7 ar  
     5     2    34 1   
     6     3     5 ar  
     7     3     9 ar  
     8     3    52 1   
     9     4     8 ar  
    10     4    12 ar  
    11     4    39 1   
    12     5    13 ar  
    13     5    37 1   
    14     6    15 ar  
    15     6    35 1   
    16     7    16 ar  
    17     7    36 1   
    18     8    17 ar  
    19     8    40 1   
    20     9    18 ar  
    21     9    38 1   
    22    10    12 ar  
    23    10    14 ar  
    24    10    41 1   
    25    11    13 ar  
    26    11    18 ar  
    27    11    42 1   
    28    12    20 1   
    29    13    51 1   
    30    14    17 ar  
    31    14    25 1   
    32    15    16 ar  
    33    15    29 1   
    34    16    30 1   
    35    17    31 1   
    36    18    32 1   
    37    19    21 1   
    38    19    25 1   
    39    19    27 2   
    40    20    26 1   
    41    20    28 2   
    42    21    31 1   
    43    21    43 1   
    44    21    44 1   
    45    22    23 1   
    46    22    29 1   
    47    22    46 1   
    48    22    47 1   
    49    23    24 1   
    50    23    30 1   
    51    23    48 1   
    52    24    26 1   
    53    24    49 1   
    54    24    50 1   
    55    25    51 1   
    56    26    45 1   
    57    51    53 1   
    58    51    54 1   
@<TRIPOS>SUBSTRUCTURE
     1 R4N         1 TEMP              0 ****  ****    0 ROOT
