@<TRIPOS>MOLECULE
R4O
   38    39     1     0     0
SMALL
No Charge or Current Charge


@<TRIPOS>ATOM
      1 S            4.8750   -25.3320    10.5210 ss         1 R4O       0.388000
      2 C            2.3550   -28.8590    13.3850 c3         1 R4O       0.161900
      3 C1           3.5060   -27.2510    12.0000 c          1 R4O       0.632700
      4 C2           3.4030   -26.1770    10.9780 cc         1 R4O      -0.196600
      5 C3           3.9640   -24.2370     9.5020 cc         1 R4O      -0.267000
      6 O3          -0.0000   -25.8460    11.7070 o          1 R4O      -0.515000
      7 N           -0.2560   -25.5020     9.2440 ns         1 R4O      -0.615300
      8 O            2.3230   -27.8150    12.3930 os         1 R4O      -0.434100
      9 C10         -2.6240   -24.1060     4.1550 ca         1 R4O       0.410300
     10 C11         -4.9030   -23.2970     4.6010 c3         1 R4O       0.162900
     11 C4           2.6350   -24.5650     9.4870 cd         1 R4O      -0.064000
     12 C5           2.2750   -25.6850    10.3070 cd         1 R4O      -0.240500
     13 C6          -0.1470   -25.6770     7.9080 c          1 R4O       0.692100
     14 C7          -1.2210   -24.7280     5.8340 ca         1 R4O       0.323900
     15 C8          -0.5110   -24.8510     3.6930 ca         1 R4O       0.222300
     16 C9           0.5680   -25.1790     2.6780 c3         1 R4O      -0.141400
     17 N1          -1.0190   -24.8720     7.2160 ns         1 R4O      -0.323900
     18 N2          -0.2180   -25.0380     4.9940 nb         1 R4O      -0.251000
     19 N3          -1.6890   -24.3910     3.2240 nb         1 R4O      -0.247000
     20 N4          -2.4300   -24.2590     5.4860 nb         1 R4O      -0.358000
     21 O1           4.5810   -27.5960    12.4720 o          1 R4O      -0.474000
     22 O2           0.5610   -27.7390    10.0830 o          1 R4O      -0.515000
     23 O4           0.6370   -26.4520     7.3890 o          1 R4O      -0.517100
     24 S1           0.5790   -26.3160    10.4430 sy         1 R4O       1.229300
     25 H1           1.3390   -29.2140    13.5980 h1         1 R4O       0.056033
     26 H2           2.9460   -29.7150    13.0350 h1         1 R4O       0.056033
     27 H3           2.7910   -28.4950    14.3240 h1         1 R4O       0.056033
     28 H4           4.4820   -23.4430     8.9800 h4         1 R4O       0.159000
     29 H5          -0.9140   -24.8450     9.6260 hn         1 R4O       0.345500
     30 H6          -5.7780   -22.9400     4.0440 h1         1 R4O       0.053700
     31 H7          -5.2090   -24.1730     5.1890 h1         1 R4O       0.053700
     32 H8          -4.5960   -22.5030     5.2940 h1         1 R4O       0.053700
     33 H9           1.9190   -24.0010     8.8950 ha         1 R4O       0.141000
     34 H10          0.1350   -25.5260     1.7320 hc         1 R4O       0.069700
     35 H11          1.1790   -24.2940     2.4630 hc         1 R4O       0.069700
     36 H12          1.2360   -25.9670     3.0440 hc         1 R4O       0.069700
     37 H13         -1.6420   -24.3150     7.7830 hn         1 R4O       0.176000
     38 O5          -3.8330   -23.6320     3.6950 os         1 R4O      -0.423300
@<TRIPOS>BOND
     1     1     4 1   
     2     1     5 1   
     3     2     8 1   
     4     2    25 1   
     5     2    26 1   
     6     2    27 1   
     7     3     4 1   
     8     3     8 1   
     9     3    21 2   
    10     4    12 2   
    11     5    11 2   
    12     5    28 1   
    13     6    24 2   
    14     7    13 1   
    15     7    24 1   
    16     7    29 1   
    17     9    19 ar  
    18     9    20 ar  
    19     9    38 1   
    20    10    30 1   
    21    10    31 1   
    22    10    32 1   
    23    10    38 1   
    24    11    12 1   
    25    11    33 1   
    26    12    24 1   
    27    13    17 1   
    28    13    23 2   
    29    14    17 1   
    30    14    18 ar  
    31    14    20 ar  
    32    15    16 1   
    33    15    18 ar  
    34    15    19 ar  
    35    16    34 1   
    36    16    35 1   
    37    16    36 1   
    38    17    37 1   
    39    22    24 2   
@<TRIPOS>SUBSTRUCTURE
     1 R4O         1 TEMP              0 ****  ****    0 ROOT
