@<TRIPOS>MOLECULE
R4O
   38    39     1     0     0
SMALL
abcg2


@<TRIPOS>ATOM
      1 S            4.7270   -25.3980    10.2840 ss         1 R4O       0.388000
      2 C            2.4250   -28.7860    13.2160 c3         1 R4O       0.161900
      3 C1           3.4910   -27.3780    11.6610 c          1 R4O       0.632700
      4 C2           3.3090   -26.2180    10.7720 cc         1 R4O      -0.196600
      5 C3           3.8330   -24.2170     9.4500 cc         1 R4O      -0.267000
      6 O3           0.0320   -25.6990    11.7830 o          1 R4O      -0.515000
      7 N           -0.3320   -25.3380     9.3720 ns         1 R4O      -0.615300
      8 O            2.3960   -27.6650    12.3270 os         1 R4O      -0.434100
      9 C10         -2.5340   -24.1570     4.2100 ca         1 R4O       0.410300
     10 C11         -4.7330   -23.3720     4.5410 c3         1 R4O       0.162900
     11 C4           2.4900   -24.4360     9.5220 cd         1 R4O      -0.064000
     12 C5           2.1900   -25.5950    10.2770 cd         1 R4O      -0.240500
     13 C6          -0.2140   -25.5920     8.0130 c          1 R4O       0.692100
     14 C7          -1.2860   -24.8190     5.9290 ca         1 R4O       0.323900
     15 C8          -0.4620   -24.9120     3.8540 ca         1 R4O       0.222300
     16 C9           0.6670   -25.2420     2.9390 c3         1 R4O      -0.141400
     17 N1          -1.2040   -24.9660     7.2930 ns         1 R4O      -0.323900
     18 N2          -0.2640   -25.1270     5.1570 nb         1 R4O      -0.251000
     19 N3          -1.5740   -24.4300     3.3300 nb         1 R4O      -0.247000
     20 N4          -2.4500   -24.3280     5.5140 nb         1 R4O      -0.358000
     21 O1           4.5500   -27.9430    11.7730 o          1 R4O      -0.474000
     22 O2           0.4820   -27.5910    10.1890 o          1 R4O      -0.515000
     23 O4           0.6650   -26.2800     7.5650 o          1 R4O      -0.517100
     24 S1           0.5360   -26.1870    10.5180 sy         1 R4O       1.229300
     25 H1           1.4280   -28.8520    13.6390 h1         1 R4O       0.056033
     26 H2           2.6590   -29.7050    12.6810 h1         1 R4O       0.056033
     27 H3           3.1520   -28.6310    14.0130 h1         1 R4O       0.056033
     28 H4           4.3350   -23.4110     8.9360 h4         1 R4O       0.159000
     29 H5          -0.9540   -24.6240     9.7360 hn         1 R4O       0.345500
     30 H6          -5.5230   -23.0130     3.8880 h1         1 R4O       0.053700
     31 H7          -5.0780   -24.2560     5.0770 h1         1 R4O       0.053700
     32 H8          -4.4730   -22.5960     5.2600 h1         1 R4O       0.053700
     33 H9           1.7600   -23.7920     9.0560 ha         1 R4O       0.141000
     34 H10          0.4260   -24.9950     1.9090 hc         1 R4O       0.069700
     35 H11          1.5640   -24.7000     3.2390 hc         1 R4O       0.069700
     36 H12          0.9000   -26.3060     3.0050 hc         1 R4O       0.069700
     37 H13         -2.0020   -24.5970     7.7920 hn         1 R4O       0.176000
     38 O5          -3.6360   -23.6790     3.6830 os         1 R4O      -0.423300
@<TRIPOS>BOND
     1     1     4 1   
     2     1     5 1   
     3     2     8 1   
     4     2    25 1   
     5     2    26 1   
     6     2    27 1   
     7     3     4 1   
     8     3     8 1   
     9     3    21 2   
    10     4    12 2   
    11     5    11 2   
    12     5    28 1   
    13     6    24 2   
    14     7    13 1   
    15     7    24 1   
    16     7    29 1   
    17     9    19 ar  
    18     9    20 ar  
    19     9    38 1   
    20    10    30 1   
    21    10    31 1   
    22    10    32 1   
    23    10    38 1   
    24    11    12 1   
    25    11    33 1   
    26    12    24 1   
    27    13    17 1   
    28    13    23 2   
    29    14    17 1   
    30    14    18 ar  
    31    14    20 ar  
    32    15    16 1   
    33    15    18 ar  
    34    15    19 ar  
    35    16    34 1   
    36    16    35 1   
    37    16    36 1   
    38    17    37 1   
    39    22    24 2   
@<TRIPOS>SUBSTRUCTURE
     1 R4O         1 TEMP              0 ****  ****    0 ROOT
