@<TRIPOS>MOLECULE
R4P
   42    45     1     0     0
SMALL
No Charge or Current Charge


@<TRIPOS>ATOM
      1 C1          34.2100    15.1920     3.6830 ca         1 R4P      -0.119600
      2 C13         34.4690    15.4620     1.2780 ca         1 R4P      -0.020600
      3 C14         35.3590    18.1900     3.4280 c3         1 R4P       0.089900
      4 C15         34.0520    14.1460     1.0400 ca         1 R4P      -0.055000
      5 C17         33.2700    11.8960     1.9220 cp         1 R4P       0.009000
      6 C19         32.0830    10.2070     0.5870 ca         1 R4P      -0.102000
      7 N           34.8530    16.4210     0.3460 nc         1 R4P      -0.258400
      8 C           34.2580    15.7280     5.0880 c          1 R4P       0.723600
      9 O           35.0120    15.1860     5.8820 o          1 R4P      -0.712500
     10 C12         34.5460    15.9560     2.5460 ca         1 R4P      -0.026200
     11 C16         33.7120    13.3100     2.1400 cp         1 R4P      -0.082000
     12 C18         32.4980    11.5340     0.7900 ca         1 R4P      -0.109500
     13 C1A         32.4170     9.1890     1.5090 cp         1 R4P      -0.066000
     14 C1B         31.9800     7.7780     1.2750 cp         1 R4P      -0.017000
     15 C1C         32.2880     7.1600     0.0380 ca         1 R4P      -0.101000
     16 C1D         31.9090     5.8350    -0.2280 ca         1 R4P      -0.121000
     17 C1E         31.2090     5.1020     0.7400 ca         1 R4P      -0.117000
     18 C1F         30.8810     5.6980     1.9680 ca         1 R4P      -0.119000
     19 C1G         31.2530     7.0290     2.2460 ca         1 R4P      -0.060300
     20 C1H         30.8290     7.6270     3.5850 c3         1 R4P      -0.047800
     21 C1I         33.1990     9.5430     2.6320 ca         1 R4P      -0.102000
     22 C1K         33.8000    13.8570     3.4550 ca         1 R4P      -0.083000
     23 C1L         33.6140    10.8700     2.8370 ca         1 R4P      -0.109500
     24 N1          35.1870    17.5150     1.0280 nd         1 R4P      -0.213400
     25 N12         35.0000    17.2360     2.3680 na         1 R4P       0.089600
     26 O1          33.4960    16.6360     5.3860 o          1 R4P      -0.712500
     27 H1          35.9450    19.0130     3.0030 h1         1 R4P       0.059700
     28 H2          34.4470    18.5980     3.8790 h1         1 R4P       0.059700
     29 H3          35.9600    17.6860     4.1940 h1         1 R4P       0.059700
     30 H4          34.0120    13.7710     0.0210 ha         1 R4P       0.112000
     31 H5          31.4860     9.9650    -0.2900 ha         1 R4P       0.105500
     32 H7          32.2040    12.2920     0.0690 ha         1 R4P       0.122500
     33 H8          32.8390     7.7160    -0.7170 ha         1 R4P       0.115000
     34 H9          32.1620     5.3770    -1.1820 ha         1 R4P       0.106000
     35 H10         30.9140     4.0750     0.5370 ha         1 R4P       0.103000
     36 H11         30.3290     5.1200     2.7060 ha         1 R4P       0.104000
     37 H12         30.5580     8.6850     3.4870 hc         1 R4P       0.045033
     38 H13         29.9540     7.1110     3.9970 hc         1 R4P       0.045033
     39 H14         31.6350     7.5490     4.3240 hc         1 R4P       0.045033
     40 H15         33.4980     8.7780     3.3450 ha         1 R4P       0.105500
     41 H16         33.5250    13.2440     4.3100 ha         1 R4P       0.133000
     42 H17         34.2250    11.1010     3.7070 ha         1 R4P       0.122500
@<TRIPOS>BOND
     1     1     8 1   
     2     1    10 ar  
     3     1    22 ar  
     4     2     4 ar  
     5     2     7 1   
     6     2    10 ar  
     7     3    25 1   
     8     3    27 1   
     9     3    28 1   
    10     3    29 1   
    11     4    11 ar  
    12     4    30 1   
    13     5    11 1   
    14     5    12 ar  
    15     5    23 ar  
    16     6    12 ar  
    17     6    13 ar  
    18     6    31 1   
    19     7    24 2   
    20     8     9 1   
    21     8    26 1   
    22    10    25 1   
    23    11    22 ar  
    24    12    32 1   
    25    13    14 1   
    26    13    21 ar  
    27    14    15 ar  
    28    14    19 ar  
    29    15    16 ar  
    30    15    33 1   
    31    16    17 ar  
    32    16    34 1   
    33    17    18 ar  
    34    17    35 1   
    35    18    19 ar  
    36    18    36 1   
    37    19    20 1   
    38    20    37 1   
    39    20    38 1   
    40    20    39 1   
    41    21    23 ar  
    42    21    40 1   
    43    22    41 1   
    44    23    42 1   
    45    24    25 1   
@<TRIPOS>SUBSTRUCTURE
     1 R4P         1 TEMP              0 ****  ****    0 ROOT
