@<TRIPOS>MOLECULE
R4P
   42    45     1     0     0
SMALL
abcg2


@<TRIPOS>ATOM
      1 C1          34.1610    15.1220     3.7190 ca         1 R4P      -0.119600
      2 C13         34.4160    15.3930     1.3000 ca         1 R4P      -0.020600
      3 C14         35.5020    18.1700     3.3110 c3         1 R4P       0.089900
      4 C15         33.9670    14.0970     1.0400 ca         1 R4P      -0.055000
      5 C17         33.1940    11.9100     1.9280 cp         1 R4P       0.009000
      6 C19         31.9980    10.2380     0.6480 ca         1 R4P      -0.102000
      7 N           34.8550    16.3370     0.4230 nc         1 R4P      -0.258400
      8 C           34.0910    15.6110     5.1630 c          1 R4P       0.723600
      9 O           34.2000    14.7420     6.0440 o          1 R4P      -0.712500
     10 C12         34.5200    15.9040     2.6010 ca         1 R4P      -0.026200
     11 C16         33.6430    13.3030     2.1210 cp         1 R4P      -0.082000
     12 C18         32.3930    11.5520     0.8420 ca         1 R4P      -0.109500
     13 C1A         32.3790     9.2340     1.5380 cp         1 R4P      -0.066000
     14 C1B         31.9880     7.8270     1.2960 cp         1 R4P      -0.017000
     15 C1C         32.3130     7.2510     0.0670 ca         1 R4P      -0.101000
     16 C1D         31.9900     5.9340    -0.2210 ca         1 R4P      -0.121000
     17 C1E         31.3240     5.1740     0.7290 ca         1 R4P      -0.117000
     18 C1F         30.9830     5.7430     1.9470 ca         1 R4P      -0.119000
     19 C1G         31.3020     7.0650     2.2540 ca         1 R4P      -0.060300
     20 C1H         30.8770     7.6320     3.5790 c3         1 R4P      -0.047800
     21 C1I         33.1730     9.5920     2.6270 ca         1 R4P      -0.102000
     22 C1K         33.7540    13.8370     3.4280 ca         1 R4P      -0.083000
     23 C1L         33.5740    10.9040     2.8180 ca         1 R4P      -0.109500
     24 N1          35.2240    17.3560     1.0950 nd         1 R4P      -0.213400
     25 N12         35.0450    17.1450     2.3960 na         1 R4P       0.089600
     26 O1          33.8850    16.8280     5.3150 o          1 R4P      -0.712500
     27 H1          36.0820    18.8800     2.7270 h1         1 R4P       0.059700
     28 H2          34.6670    18.6760     3.7830 h1         1 R4P       0.059700
     29 H3          36.1350    17.7360     4.0770 h1         1 R4P       0.059700
     30 H4          33.9180    13.7310     0.0230 ha         1 R4P       0.112000
     31 H5          31.3700     9.9920    -0.1990 ha         1 R4P       0.105500
     32 H7          32.0560    12.3100     0.1460 ha         1 R4P       0.122500
     33 H8          32.8420     7.8440    -0.6690 ha         1 R4P       0.115000
     34 H9          32.2590     5.5060    -1.1790 ha         1 R4P       0.106000
     35 H10         31.0640     4.1440     0.5220 ha         1 R4P       0.103000
     36 H11         30.4460     5.1520     2.6780 ha         1 R4P       0.104000
     37 H12         30.5170     8.6570     3.4890 hc         1 R4P       0.045033
     38 H13         30.0780     7.0320     4.0130 hc         1 R4P       0.045033
     39 H14         31.6970     7.6450     4.2990 hc         1 R4P       0.045033
     40 H15         33.5090     8.8320     3.3210 ha         1 R4P       0.105500
     41 H16         33.4660    13.2110     4.2630 ha         1 R4P       0.133000
     42 H17         34.2180    11.1370     3.6560 ha         1 R4P       0.122500
@<TRIPOS>BOND
     1     1     8 1   
     2     1    10 ar  
     3     1    22 ar  
     4     2     4 ar  
     5     2     7 1   
     6     2    10 ar  
     7     3    25 1   
     8     3    27 1   
     9     3    28 1   
    10     3    29 1   
    11     4    11 ar  
    12     4    30 1   
    13     5    11 1   
    14     5    12 ar  
    15     5    23 ar  
    16     6    12 ar  
    17     6    13 ar  
    18     6    31 1   
    19     7    24 2   
    20     8     9 1   
    21     8    26 1   
    22    10    25 1   
    23    11    22 ar  
    24    12    32 1   
    25    13    14 1   
    26    13    21 ar  
    27    14    15 ar  
    28    14    19 ar  
    29    15    16 ar  
    30    15    33 1   
    31    16    17 ar  
    32    16    34 1   
    33    17    18 ar  
    34    17    35 1   
    35    18    19 ar  
    36    18    36 1   
    37    19    20 1   
    38    20    37 1   
    39    20    38 1   
    40    20    39 1   
    41    21    23 ar  
    42    21    40 1   
    43    22    41 1   
    44    23    42 1   
    45    24    25 1   
@<TRIPOS>SUBSTRUCTURE
     1 R4P         1 TEMP              0 ****  ****    0 ROOT
