@<TRIPOS>MOLECULE
R4Q
   53    56     1     0     0
SMALL
No Charge or Current Charge


@<TRIPOS>ATOM
      1 C01         96.9070   116.9270    91.0930 c3         1 R4Q      -0.086100
      2 C02         97.1480   115.8860    92.2090 c3         1 R4Q       0.091300
      3 C04         98.9790   115.5660    93.8640 ca         1 R4Q       0.227100
      4 C05        100.0210   116.1640    94.5880 ca         1 R4Q      -0.177000
      5 C06        100.7450   115.4290    95.5410 ca         1 R4Q      -0.020000
      6 C07        100.4330   114.0740    95.7720 ca         1 R4Q      -0.205800
      7 C08        101.1680   113.2850    96.7540 cc         1 R4Q       0.104600
      8 C09        102.2930   113.7550    97.5560 ca         1 R4Q      -0.069800
      9 C10        102.1210   113.9570    98.9400 ca         1 R4Q      -0.058000
     10 C11        103.1930   114.4140    99.7280 ca         1 R4Q      -0.157000
     11 C12        104.4380   114.6660    99.1340 ca         1 R4Q       0.182000
     12 C14        104.6230   114.4630    97.7600 ca         1 R4Q      -0.156000
     13 C15        103.5540   114.0070    96.9700 ca         1 R4Q       0.156000
     14 C17        100.7700   111.9830    96.9370 cd         1 R4Q      -0.335200
     15 C18         99.6700   111.3690    96.1780 c          1 R4Q       0.676300
     16 C21         99.3860   113.4800    95.0460 ca         1 R4Q       0.221100
     17 C22         98.6640   114.2120    94.0950 ca         1 R4Q      -0.224000
     18 C23         95.8900   115.7150    93.1310 c          1 R4Q       0.564100
     19 C26         93.4660   115.0700    93.4330 c6         1 R4Q       0.105000
     20 C27         92.2000   114.7480    92.6050 c6         1 R4Q      -0.094400
     21 C28         92.3250   113.4110    91.8380 c6         1 R4Q      -0.050400
     22 C29         93.7850   113.1180    91.3810 c6         1 R4Q      -0.215700
     23 C30         93.8470   112.3240    90.0600 c          1 R4Q       0.727000
     24 C33         94.6510   114.4000    91.3010 c6         1 R4Q       0.111000
     25 F13        105.4670   115.1040    99.8920 f          1 R4Q      -0.176000
     26 N25         94.7080   115.1290    92.6070 n          1 R4Q      -0.395800
     27 O03         98.3130   116.3460    92.9380 os         1 R4Q      -0.323100
     28 O19         99.3350   110.2070    96.3480 o          1 R4Q      -0.486000
     29 O20         99.0480   112.1700    95.2620 os         1 R4Q      -0.326200
     30 O24         95.9000   116.1050    94.2960 o          1 R4Q      -0.628100
     31 O31         93.4340   112.8590    89.0420 o          1 R4Q      -0.726500
     32 O32         94.3280   111.2020    90.0890 o          1 R4Q      -0.726500
     33 Cl1        103.8260   113.7390    95.2490 cl         1 R4Q      -0.170000
     34 H1          96.0880   116.6240    90.4320 hc         1 R4Q       0.052700
     35 H2          96.6530   117.9030    91.5240 hc         1 R4Q       0.052700
     36 H3          97.8070   117.0450    90.4780 hc         1 R4Q       0.052700
     37 H4          97.3700   114.9230    91.7360 h1         1 R4Q       0.080700
     38 H5         100.2670   117.2070    94.4110 ha         1 R4Q       0.130000
     39 H6         101.5440   115.9170    96.0940 ha         1 R4Q       0.114000
     40 H7         101.1550   113.7650    99.4020 ha         1 R4Q       0.132000
     41 H8         103.0590   114.5730   100.7950 ha         1 R4Q       0.136000
     42 H9         105.5920   114.6550    97.3080 ha         1 R4Q       0.146000
     43 H10        101.2550   111.3240    97.6450 ha         1 R4Q       0.207000
     44 H11         97.8680   113.7110    93.5560 ha         1 R4Q       0.161000
     45 H12         93.5950   114.3070    94.2130 h1         1 R4Q       0.041200
     46 H13         93.3190   116.0360    93.9370 h1         1 R4Q       0.041200
     47 H14         92.0290   115.5640    91.8890 hc         1 R4Q       0.029700
     48 H15         91.3180   114.7250    93.2590 hc         1 R4Q       0.029700
     49 H16         91.6440   113.4370    90.9760 hc         1 R4Q       0.045200
     50 H17         91.9740   112.5840    92.4720 hc         1 R4Q       0.045200
     51 H18         94.2370   112.4790    92.1530 hc         1 R4Q       0.041700
     52 H19         95.6540   114.1040    90.9710 h1         1 R4Q       0.051700
     53 H20         94.2410   115.0740    90.5350 h1         1 R4Q       0.051700
@<TRIPOS>BOND
     1     1     2 1   
     2     1    34 1   
     3     1    35 1   
     4     1    36 1   
     5     2    18 1   
     6     2    27 1   
     7     2    37 1   
     8     3     4 ar  
     9     3    17 ar  
    10     3    27 1   
    11     4     5 ar  
    12     4    38 1   
    13     5     6 ar  
    14     5    39 1   
    15     6     7 1   
    16     6    16 ar  
    17     7     8 1   
    18     7    14 2   
    19     8     9 ar  
    20     8    13 ar  
    21     9    10 ar  
    22     9    40 1   
    23    10    11 ar  
    24    10    41 1   
    25    11    12 ar  
    26    11    25 1   
    27    12    13 ar  
    28    12    42 1   
    29    13    33 1   
    30    14    15 1   
    31    14    43 1   
    32    15    28 2   
    33    15    29 1   
    34    16    17 ar  
    35    16    29 1   
    36    17    44 1   
    37    18    26 1   
    38    18    30 2   
    39    19    20 1   
    40    19    26 1   
    41    19    45 1   
    42    19    46 1   
    43    20    21 1   
    44    20    47 1   
    45    20    48 1   
    46    21    22 1   
    47    21    49 1   
    48    21    50 1   
    49    22    23 1   
    50    22    24 1   
    51    22    51 1   
    52    23    31 1   
    53    23    32 1   
    54    24    26 1   
    55    24    52 1   
    56    24    53 1   
@<TRIPOS>SUBSTRUCTURE
     1 R4Q         1 TEMP              0 ****  ****    0 ROOT
