@<TRIPOS>MOLECULE
R4Q
   53    56     1     0     0
SMALL
abcg2


@<TRIPOS>ATOM
      1 C01         96.8540   117.0300    91.2550 c3         1 R4Q      -0.086100
      2 C02         97.1130   115.9710    92.3140 c3         1 R4Q       0.091300
      3 C04         98.8030   115.6170    93.9580 ca         1 R4Q       0.227100
      4 C05         99.8580   116.1850    94.6910 ca         1 R4Q      -0.177000
      5 C06        100.5840   115.4160    95.5640 ca         1 R4Q      -0.020000
      6 C07        100.2930   114.0570    95.7480 ca         1 R4Q      -0.205800
      7 C08        101.0130   113.1760    96.6290 cc         1 R4Q       0.104600
      8 C09        102.1720   113.6820    97.3950 ca         1 R4Q      -0.069800
      9 C10        102.0660   113.9020    98.7640 ca         1 R4Q      -0.058000
     10 C11        103.1210   114.4190    99.4990 ca         1 R4Q      -0.157000
     11 C12        104.2950   114.7160    98.8350 ca         1 R4Q       0.182000
     12 C14        104.4570   114.4920    97.4820 ca         1 R4Q      -0.156000
     13 C15        103.3850   113.9740    96.7760 ca         1 R4Q       0.156000
     14 C17        100.6140   111.8940    96.7650 cd         1 R4Q      -0.335200
     15 C18         99.4880   111.3700    96.0250 c          1 R4Q       0.676300
     16 C21         99.2250   113.5250    95.0290 ca         1 R4Q       0.221100
     17 C22         98.4780   114.2780    94.1350 ca         1 R4Q      -0.224000
     18 C23         95.8710   115.7880    93.2010 c          1 R4Q       0.564100
     19 C26         93.5860   115.0780    93.4570 c6         1 R4Q       0.105000
     20 C27         92.4160   114.7420    92.5490 c6         1 R4Q      -0.094400
     21 C28         92.5800   113.3820    91.8630 c6         1 R4Q      -0.050400
     22 C29         94.0580   113.0700    91.5930 c6         1 R4Q      -0.215700
     23 C30         94.2690   112.0910    90.4120 c          1 R4Q       0.727000
     24 C33         94.8530   114.3590    91.4350 c6         1 R4Q       0.111000
     25 F13        105.3180   115.2400    99.5160 f          1 R4Q      -0.176000
     26 N25         94.8280   115.1210    92.6840 n          1 R4Q      -0.395800
     27 O03         98.1870   116.4410    93.1050 os         1 R4Q      -0.323100
     28 O19         99.0620   110.2450    96.0830 o          1 R4Q      -0.486000
     29 O20         98.8650   112.2300    95.1740 os         1 R4Q      -0.326200
     30 O24         95.8460   116.3020    94.3110 o          1 R4Q      -0.628100
     31 O31         95.2860   112.2590    89.7090 o          1 R4Q      -0.726500
     32 O32         93.4140   111.1940    90.2880 o          1 R4Q      -0.726500
     33 CL1        103.5780   113.6750    95.0860 cl         1 R4Q      -0.170000
     34 H1          96.0640   116.7120    90.5770 hc         1 R4Q       0.052700
     35 H2          96.5520   117.9730    91.7100 hc         1 R4Q       0.052700
     36 H3          97.7520   117.2000    90.6620 hc         1 R4Q       0.052700
     37 H4          97.4090   115.0380    91.8260 h1         1 R4Q       0.080700
     38 H5         100.0930   117.2320    94.5550 ha         1 R4Q       0.130000
     39 H6         101.3900   115.8730    96.1230 ha         1 R4Q       0.114000
     40 H7         101.1320   113.6750    99.2620 ha         1 R4Q       0.132000
     41 H8         103.0250   114.5930   100.5620 ha         1 R4Q       0.136000
     42 H9         105.3960   114.7150    96.9930 ha         1 R4Q       0.146000
     43 H10        101.1330   111.2060    97.4180 ha         1 R4Q       0.207000
     44 H11         97.6670   113.7950    93.6050 ha         1 R4Q       0.161000
     45 H12         93.6670   114.3420    94.2640 h1         1 R4Q       0.041200
     46 H13         93.4260   116.0490    93.9260 h1         1 R4Q       0.041200
     47 H14         92.3180   115.5330    91.8020 hc         1 R4Q       0.029700
     48 H15         91.4990   114.7700    93.1400 hc         1 R4Q       0.029700
     49 H16         92.0150   113.3880    90.9290 hc         1 R4Q       0.045200
     50 H17         92.1440   112.5940    92.4780 hc         1 R4Q       0.045200
     51 H18         94.4670   112.5640    92.4780 hc         1 R4Q       0.041700
     52 H19         95.8750   114.1080    91.1730 h1         1 R4Q       0.051700
     53 H20         94.4460   114.9590    90.6120 h1         1 R4Q       0.051700
@<TRIPOS>BOND
     1     1     2 1   
     2     1    34 1   
     3     1    35 1   
     4     1    36 1   
     5     2    18 1   
     6     2    27 1   
     7     2    37 1   
     8     3     4 ar  
     9     3    17 ar  
    10     3    27 1   
    11     4     5 ar  
    12     4    38 1   
    13     5     6 ar  
    14     5    39 1   
    15     6     7 1   
    16     6    16 ar  
    17     7     8 1   
    18     7    14 2   
    19     8     9 ar  
    20     8    13 ar  
    21     9    10 ar  
    22     9    40 1   
    23    10    11 ar  
    24    10    41 1   
    25    11    12 ar  
    26    11    25 1   
    27    12    13 ar  
    28    12    42 1   
    29    13    33 1   
    30    14    15 1   
    31    14    43 1   
    32    15    28 2   
    33    15    29 1   
    34    16    17 ar  
    35    16    29 1   
    36    17    44 1   
    37    18    26 1   
    38    18    30 2   
    39    19    20 1   
    40    19    26 1   
    41    19    45 1   
    42    19    46 1   
    43    20    21 1   
    44    20    47 1   
    45    20    48 1   
    46    21    22 1   
    47    21    49 1   
    48    21    50 1   
    49    22    23 1   
    50    22    24 1   
    51    22    51 1   
    52    23    31 1   
    53    23    32 1   
    54    24    26 1   
    55    24    52 1   
    56    24    53 1   
@<TRIPOS>SUBSTRUCTURE
     1 R4Q         1 TEMP              0 ****  ****    0 ROOT
