@<TRIPOS>MOLECULE
R4R
   56    59     1     0     0
SMALL
abcg2


@<TRIPOS>ATOM
      1 C13        -11.2600   -39.2650    -0.1440 cp         1 R4R       0.016000
      2 C15        -13.4380   -39.7300     1.0150 ca         1 R4R      -0.052000
      3 C17        -15.5910   -39.1970    -0.0010 ca         1 R4R       0.348000
      4 C20        -19.1480   -39.8710     0.9660 c6         1 R4R       0.158300
      5 C22        -20.9830   -38.2880     0.8130 c3         1 R4R       0.157100
      6 C24        -17.8030   -38.8410    -1.0690 c6         1 R4R       0.221800
      7 C26        -13.4930   -38.7170    -1.1410 ca         1 R4R      -0.052000
      8 C28         -9.2070   -40.5880    -0.1230 ca         1 R4R      -0.101000
      9 O01         -6.3650   -37.5570    -1.0790 o          1 R4R      -0.531100
     10 C02         -7.2060   -36.6880    -1.1670 c          1 R4R       0.618100
     11 C03         -6.8900   -35.2740    -1.6190 c3         1 R4R      -0.136700
     12 C04         -5.4120   -34.9600    -1.4070 c3         1 R4R      -0.086600
     13 C05         -7.2890   -35.1160    -3.0980 c3         1 R4R      -0.086600
     14 N06         -8.5550   -36.9880    -0.8920 n          1 R4R      -0.100600
     15 C07         -9.5960   -36.0830    -0.8720 cc         1 R4R      -0.048400
     16 C08        -10.7730   -36.7140    -0.5770 cd         1 R4R      -0.236400
     17 C09        -12.0140   -35.9890    -0.3410 c          1 R4R       0.602100
     18 O10        -12.1710   -34.8040    -0.5990 o          1 R4R      -0.550100
     19 C11         -9.0760   -38.2700    -0.5940 ca         1 R4R      -0.091000
     20 C12        -10.4730   -38.1310    -0.4190 ca         1 R4R      -0.054800
     21 C14        -12.7360   -39.2200    -0.0780 cp         1 R4R      -0.106000
     22 C16        -14.8230   -39.7200     1.0630 ca         1 R4R      -0.195000
     23 N18        -16.9660   -39.1640     0.0760 nh         1 R4R      -0.814400
     24 C19        -17.6350   -39.9120     1.1400 c6         1 R4R       0.221800
     25 N21        -19.5560   -38.5080     0.6700 n3         1 R4R      -0.719600
     26 C23        -19.0710   -38.0870    -0.6480 c6         1 R4R       0.158300
     27 C25        -14.8760   -38.7080    -1.1160 ca         1 R4R      -0.195000
     28 C27        -10.5910   -40.4790     0.0220 ca         1 R4R      -0.116000
     29 C29         -8.4240   -39.4890    -0.4520 ca         1 R4R      -0.097000
     30 H1         -12.8900   -40.1360     1.8570 ha         1 R4R       0.113500
     31 H2         -19.6100   -40.1870     1.9010 h1         1 R4R       0.039950
     32 H3         -19.4750   -40.5820     0.1890 h1         1 R4R       0.039950
     33 H4         -21.2980   -38.5370     1.8270 h1         1 R4R       0.032367
     34 H5         -21.2120   -37.2360     0.6290 h1         1 R4R       0.032367
     35 H6         -21.5780   -38.8910     0.1050 h1         1 R4R       0.032367
     36 H7         -18.0720   -39.7560    -1.6100 h1         1 R4R       0.044700
     37 H8         -17.2590   -38.2120    -1.7640 h1         1 R4R       0.044700
     38 H9         -12.9870   -38.3360    -2.0210 ha         1 R4R       0.113500
     39 H10         -8.7350   -41.5540     0.0020 ha         1 R4R       0.116000
     40 H11         -7.4790   -34.5750    -1.0220 hc         1 R4R       0.067700
     41 H12         -5.1260   -35.0790    -0.3610 hc         1 R4R       0.048700
     42 H13         -4.7830   -35.6150    -2.0100 hc         1 R4R       0.048700
     43 H14         -5.2180   -33.9280    -1.7020 hc         1 R4R       0.048700
     44 H15         -8.3510   -35.3060    -3.2600 hc         1 R4R       0.048700
     45 H16         -7.0690   -34.0990    -3.4240 hc         1 R4R       0.048700
     46 H17         -6.7170   -35.8090    -3.7180 hc         1 R4R       0.048700
     47 H18         -9.4380   -35.0320    -1.0300 h4         1 R4R       0.231000
     48 H19        -12.8280   -36.5640     0.1200 h4         1 R4R       0.015200
     49 H20        -15.3090   -40.1170     1.9410 ha         1 R4R       0.112500
     50 H21        -17.2950   -40.9560     1.1560 h1         1 R4R       0.044700
     51 H22        -17.3830   -39.4660     2.1060 h1         1 R4R       0.044700
     52 H24        -18.8810   -37.0100    -0.6240 h1         1 R4R       0.039950
     53 H25        -19.8300   -38.2680    -1.4250 h1         1 R4R       0.039950
     54 H26        -15.3940   -38.3220    -1.9800 ha         1 R4R       0.112500
     55 H27        -11.1730   -41.3660     0.2360 ha         1 R4R       0.117000
     56 H28         -7.3590   -39.5780    -0.5850 ha         1 R4R       0.145000
@<TRIPOS>BOND
     1     1    20 ar  
     2     1    21 1   
     3     1    28 ar  
     4     2    21 ar  
     5     2    22 ar  
     6     2    30 1   
     7     3    22 ar  
     8     3    23 1   
     9     3    27 ar  
    10     4    24 1   
    11     4    25 1   
    12     4    31 1   
    13     4    32 1   
    14     5    25 1   
    15     5    33 1   
    16     5    34 1   
    17     5    35 1   
    18     6    23 1   
    19     6    26 1   
    20     6    36 1   
    21     6    37 1   
    22     7    21 ar  
    23     7    27 ar  
    24     7    38 1   
    25     8    28 ar  
    26     8    29 ar  
    27     8    39 1   
    28     9    10 2   
    29    10    11 1   
    30    10    14 1   
    31    11    12 1   
    32    11    13 1   
    33    11    40 1   
    34    12    41 1   
    35    12    42 1   
    36    12    43 1   
    37    13    44 1   
    38    13    45 1   
    39    13    46 1   
    40    14    15 1   
    41    14    19 1   
    42    15    16 2   
    43    15    47 1   
    44    16    17 1   
    45    16    20 1   
    46    17    18 2   
    47    17    48 1   
    48    19    20 ar  
    49    19    29 ar  
    50    22    49 1   
    51    23    24 1   
    52    24    50 1   
    53    24    51 1   
    54    25    26 1   
    55    26    52 1   
    56    26    53 1   
    57    27    54 1   
    58    28    55 1   
    59    29    56 1   
@<TRIPOS>SUBSTRUCTURE
     1 R4R         1 TEMP              0 ****  ****    0 ROOT
