@<TRIPOS>MOLECULE
R4R
   56    59     1     0     0
SMALL
No Charge or Current Charge


@<TRIPOS>ATOM
      1 C13        -11.2740   -39.2990    -0.2050 cp         1 R4R       0.016000
      2 C15        -13.3720   -39.3540     1.1920 ca         1 R4R      -0.052000
      3 C17        -15.5840   -39.1030     0.1810 ca         1 R4R       0.348000
      4 C20        -19.2250   -39.9660     1.0930 c6         1 R4R       0.158300
      5 C22        -21.3810   -39.0000     0.3520 c3         1 R4R       0.157100
      6 C24        -17.7290   -37.8540    -0.2690 c6         1 R4R       0.221800
      7 C26        -13.5730   -39.0490    -1.2070 ca         1 R4R      -0.052000
      8 C28         -9.2160   -40.6580    -0.1220 ca         1 R4R      -0.101000
      9 O01         -6.4120   -37.7220    -1.8230 o          1 R4R      -0.531100
     10 C02         -7.1940   -36.8090    -1.5770 c          1 R4R       0.618100
     11 C03         -6.7160   -35.3350    -1.7140 c3         1 R4R      -0.136700
     12 C04         -5.2770   -35.1300    -1.1760 c3         1 R4R      -0.086600
     13 C05         -6.8390   -34.8630    -3.1850 c3         1 R4R      -0.086600
     14 N06         -8.5430   -37.0710    -1.1900 n          1 R4R      -0.100600
     15 C07         -9.6010   -36.1550    -1.2290 cc         1 R4R      -0.048400
     16 C08        -10.7700   -36.7880    -0.8650 cd         1 R4R      -0.236400
     17 C09        -12.0700   -36.0790    -0.7350 c          1 R4R       0.602100
     18 O10        -12.2120   -34.8870    -0.9940 o          1 R4R      -0.550100
     19 C11         -9.0930   -38.3380    -0.7870 ca         1 R4R      -0.091000
     20 C12        -10.4680   -38.1980    -0.5960 ca         1 R4R      -0.054800
     21 C14        -12.7520   -39.2210    -0.0700 cp         1 R4R      -0.106000
     22 C16        -14.7710   -39.2920     1.3160 ca         1 R4R      -0.195000
     23 N18        -16.9920   -39.0360     0.2830 nh         1 R4R      -0.814400
     24 C19        -17.7180   -39.6940     1.4180 c6         1 R4R       0.221800
     25 N21        -19.9490   -38.7470     0.6190 n3         1 R4R      -0.719600
     26 C23        -19.2360   -38.1630    -0.5590 c6         1 R4R       0.158300
     27 C25        -14.9710   -38.9870    -1.0800 ca         1 R4R      -0.195000
     28 C27        -10.6120   -40.5290     0.0360 ca         1 R4R      -0.116000
     29 C29         -8.4420   -39.5600    -0.5390 ca         1 R4R      -0.097000
     30 H1         -12.7590   -39.4970     2.0800 ha         1 R4R       0.113500
     31 H2         -19.7080   -40.3690     1.9960 h1         1 R4R       0.039950
     32 H3         -19.2760   -40.7540     0.3270 h1         1 R4R       0.039950
     33 H4         -21.8810   -39.3840     1.2510 h1         1 R4R       0.032367
     34 H5         -21.8890   -38.0740     0.0520 h1         1 R4R       0.032367
     35 H6         -21.5060   -39.7380    -0.4520 h1         1 R4R       0.032367
     36 H7         -17.2650   -37.5030    -1.2010 h1         1 R4R       0.044700
     37 H8         -17.6750   -37.0210     0.4490 h1         1 R4R       0.044700
     38 H9         -13.1180   -38.9650    -2.1920 ha         1 R4R       0.113500
     39 H10         -8.7360   -41.6150     0.0730 ha         1 R4R       0.116000
     40 H11         -7.3820   -34.6920    -1.1300 hc         1 R4R       0.067700
     41 H12         -5.2060   -35.4530    -0.1300 hc         1 R4R       0.048700
     42 H13         -4.5480   -35.7040    -1.7630 hc         1 R4R       0.048700
     43 H14         -4.9920   -34.0720    -1.2230 hc         1 R4R       0.048700
     44 H15         -7.8680   -34.9740    -3.5470 hc         1 R4R       0.048700
     45 H16         -6.5590   -33.8070    -3.2790 hc         1 R4R       0.048700
     46 H17         -6.1830   -35.4510    -3.8390 hc         1 R4R       0.048700
     47 H18         -9.4200   -35.1260    -1.5220 h4         1 R4R       0.231000
     48 H19        -12.9290   -36.6760    -0.3700 h4         1 R4R       0.015200
     49 H20        -15.2140   -39.3800     2.3030 ha         1 R4R       0.112500
     50 H21        -17.2430   -40.6540     1.6680 h1         1 R4R       0.044700
     51 H22        -17.6630   -39.0570     2.3130 h1         1 R4R       0.044700
     52 H24        -19.7270   -37.2320    -0.8780 h1         1 R4R       0.039950
     53 H25        -19.2870   -38.8580    -1.4100 h1         1 R4R       0.039950
     54 H26        -15.5810   -38.8620    -1.9690 ha         1 R4R       0.112500
     55 H27        -11.1950   -41.3950     0.3410 ha         1 R4R       0.117000
     56 H28         -7.3680   -39.6730    -0.6530 ha         1 R4R       0.145000
@<TRIPOS>BOND
     1     1    20 ar  
     2     1    21 1   
     3     1    28 ar  
     4     2    21 ar  
     5     2    22 ar  
     6     2    30 1   
     7     3    22 ar  
     8     3    23 1   
     9     3    27 ar  
    10     4    24 1   
    11     4    25 1   
    12     4    31 1   
    13     4    32 1   
    14     5    25 1   
    15     5    33 1   
    16     5    34 1   
    17     5    35 1   
    18     6    23 1   
    19     6    26 1   
    20     6    36 1   
    21     6    37 1   
    22     7    21 ar  
    23     7    27 ar  
    24     7    38 1   
    25     8    28 ar  
    26     8    29 ar  
    27     8    39 1   
    28     9    10 2   
    29    10    11 1   
    30    10    14 1   
    31    11    12 1   
    32    11    13 1   
    33    11    40 1   
    34    12    41 1   
    35    12    42 1   
    36    12    43 1   
    37    13    44 1   
    38    13    45 1   
    39    13    46 1   
    40    14    15 1   
    41    14    19 1   
    42    15    16 2   
    43    15    47 1   
    44    16    17 1   
    45    16    20 1   
    46    17    18 2   
    47    17    48 1   
    48    19    20 ar  
    49    19    29 ar  
    50    22    49 1   
    51    23    24 1   
    52    24    50 1   
    53    24    51 1   
    54    25    26 1   
    55    26    52 1   
    56    26    53 1   
    57    27    54 1   
    58    28    55 1   
    59    29    56 1   
@<TRIPOS>SUBSTRUCTURE
     1 R4R         1 TEMP              0 ****  ****    0 ROOT
