@<TRIPOS>MOLECULE
R4T
   68    74     1     0     0
SMALL
No Charge or Current Charge


@<TRIPOS>ATOM
      1 C1         -17.4310    20.6020    -7.6420 ca         1 R4T       0.112500
      2 C2         -17.1620    19.9590    -6.4600 ca         1 R4T       0.010900
      3 C3         -17.2200    18.5570    -6.4270 ca         1 R4T       0.251400
      4 C4         -16.9440    22.0410    -6.0070 cc         1 R4T       0.524200
      5 C5         -19.5730    22.6030    -9.3440 c5         1 R4T       0.145300
      6 C6         -18.0720    22.9010    -9.6680 c5         1 R4T       0.142800
      7 N1         -17.7130    19.9150    -8.7700 nb         1 R4T      -0.120000
      8 N2         -17.3270    21.9420    -7.3510 na         1 R4T      -0.301800
      9 N3         -16.8490    20.8290    -5.4220 nd         1 R4T      -0.567600
     10 O1         -18.5390    23.9500    -7.6300 os         1 R4T      -0.415000
     11 C7         -17.5230    23.1110    -8.2260 c5         1 R4T       0.286300
     12 C8         -19.8470    23.5440    -8.1250 c5         1 R4T       0.153300
     13 C9         -20.7140    22.9390    -6.9850 c3         1 R4T       0.195100
     14 C10        -18.7790    14.9430    -9.1210 ca         1 R4T       0.149400
     15 C11        -20.1750    16.4110   -10.1910 ca         1 R4T       0.112500
     16 C12        -19.3360    16.4100   -11.2740 ca         1 R4T       0.010900
     17 C13        -18.1760    15.6220   -11.2220 ca         1 R4T       0.251400
     18 C14        -20.9390    17.7240   -11.8260 cc         1 R4T       0.524200
     19 C15        -22.0100    19.5350    -8.6350 c5         1 R4T       0.145300
     20 O2         -20.3090    21.5760    -6.7420 os         1 R4T      -0.611900
     21 C17        -22.4320    17.4830    -9.7660 c5         1 R4T       0.286300
     22 C18        -23.0480    19.7740    -9.7720 c5         1 R4T       0.153300
     23 C19        -22.7030    20.8890   -10.7930 c3         1 R4T       0.195100
     24 C16        -22.2520    18.0280    -8.3200 c5         1 R4T       0.142800
     25 N4         -17.8840    14.8800   -10.1410 nb         1 R4T      -0.203000
     26 N          -17.5070    17.8430    -7.5280 nb         1 R4T      -0.203000
     27 C          -17.7340    18.5650    -8.6530 ca         1 R4T       0.149400
     28 N11        -16.9620    17.8210    -5.1880 nz         1 R4T      -0.985900
     29 F6         -23.4200    17.8330    -7.5690 f          1 R4T      -0.200000
     30 F9         -17.9290    24.0770   -10.4200 f          1 R4T      -0.200000
     31 N5         -19.9210    15.6750    -9.0880 nb         1 R4T      -0.120000
     32 N6         -21.1980    17.2550   -10.5280 na         1 R4T      -0.301800
     33 N7         -19.7820    17.2230   -12.3090 nd         1 R4T      -0.567600
     34 N9         -17.2410    15.5780   -12.3500 nz         1 R4T      -0.985900
     35 O10        -20.4370    22.9960   -10.4400 os         1 R4T      -0.524900
     36 O5         -23.2280    18.4920   -10.4340 os         1 R4T      -0.415000
     37 O7         -22.3880    20.3550    -7.5000 os         1 R4T      -0.524900
     38 O8         -21.3250    20.7510   -11.2010 os         1 R4T      -0.611900
     39 P          -21.3610    20.4540    -6.2560 p5         1 R4T       1.098700
     40 P1         -20.4820    22.0240   -11.7300 p5         1 R4T       1.098700
     41 S3         -22.4910    21.4520    -4.8050 sh         1 R4T      -0.379700
     42 S4         -21.8350    22.9980   -12.9950 sh         1 R4T      -0.379700
     43 H4         -16.7780    22.9980    -5.5240 h5         1 R4T       0.115800
     44 H5         -19.7390    21.5480    -9.1030 h1         1 R4T       0.048200
     45 H6         -17.5670    22.0890   -10.2040 h1         1 R4T       0.118700
     46 H7         -16.5590    23.6370    -8.2560 h2         1 R4T       0.151200
     47 H8         -20.3560    24.4550    -8.4690 h1         1 R4T       0.134700
     48 H91        -20.6010    23.5540    -6.0820 h1         1 R4T       0.085200
     49 H92        -21.7660    22.9890    -7.2980 h1         1 R4T       0.085200
     50 H10        -18.5570    14.3460    -8.2380 h5         1 R4T       0.082600
     51 H14        -21.6110    18.3920   -12.3520 h5         1 R4T       0.115800
     52 H15        -20.9750    19.7330    -8.9410 h1         1 R4T       0.048200
     53 H17        -22.9630    16.5200    -9.7540 h2         1 R4T       0.151200
     54 H18        -24.0160    20.0400    -9.3230 h1         1 R4T       0.134700
     55 H192       -22.8760    21.8610   -10.3100 h1         1 R4T       0.085200
     56 H191       -23.3830    20.8110   -11.6520 h1         1 R4T       0.085200
     57 H16        -21.4140    17.5590    -7.7910 h1         1 R4T       0.118700
     58 H          -17.9480    18.0060    -9.5600 h5         1 R4T       0.082600
     59 H111       -16.1520    17.1900    -5.2350 hn         1 R4T       0.539167
     60 H113       -16.7180    18.4840    -4.4400 hn         1 R4T       0.539167
     61 HN92       -16.3060    15.9490   -12.1390 hn         1 R4T       0.539167
     62 HN9        -17.1530    14.6500   -12.7850 hn         1 R4T       0.539167
     63 HS3        -22.1880    20.4220    -3.9820 hs         1 R4T       0.316300
     64 HS4        -20.8670    22.9430   -13.9370 hs         1 R4T       0.316300
     65 HN91       -17.5880    16.1790   -13.1110 hn         1 R4T       0.539167
     66 H112       -17.7780    17.3130    -4.8240 hn         1 R4T       0.539167
     67 O          -20.7600    19.1680    -5.8140 o          1 R4T      -0.515500
     68 O22        -19.1660    21.6990   -12.3410 o          1 R4T      -0.515500
@<TRIPOS>BOND
     1     1     2 ar  
     2     1     7 ar  
     3     1     8 1   
     4     2     3 ar  
     5     2     9 1   
     6     3    26 ar  
     7     3    28 1   
     8     4     8 1   
     9     4     9 2   
    10     4    43 1   
    11     5     6 1   
    12     5    12 1   
    13     5    35 1   
    14     5    44 1   
    15     6    11 1   
    16     6    30 1   
    17     6    45 1   
    18     7    27 ar  
    19     8    11 1   
    20    10    11 1   
    21    10    12 1   
    22    11    46 1   
    23    12    13 1   
    24    12    47 1   
    25    13    20 1   
    26    13    48 1   
    27    13    49 1   
    28    14    25 ar  
    29    14    31 ar  
    30    14    50 1   
    31    15    16 ar  
    32    15    31 ar  
    33    15    32 1   
    34    16    17 ar  
    35    16    33 1   
    36    17    25 ar  
    37    17    34 1   
    38    18    32 1   
    39    18    33 2   
    40    18    51 1   
    41    19    22 1   
    42    19    24 1   
    43    19    37 1   
    44    19    52 1   
    45    20    39 1   
    46    21    24 1   
    47    21    32 1   
    48    21    36 1   
    49    21    53 1   
    50    22    23 1   
    51    22    36 1   
    52    22    54 1   
    53    23    38 1   
    54    23    55 1   
    55    23    56 1   
    56    24    29 1   
    57    24    57 1   
    58    26    27 ar  
    59    27    58 1   
    60    28    59 1   
    61    28    60 1   
    62    28    66 1   
    63    34    61 1   
    64    34    62 1   
    65    34    65 1   
    66    35    40 1   
    67    37    39 1   
    68    38    40 1   
    69    39    41 1   
    70    39    67 2   
    71    40    42 1   
    72    40    68 2   
    73    41    63 1   
    74    42    64 1   
@<TRIPOS>SUBSTRUCTURE
     1 R4T         1 TEMP              0 ****  ****    0 ROOT
