@<TRIPOS>MOLECULE
R4T
   68    74     1     0     0
SMALL
bcc


@<TRIPOS>ATOM
      1 C1         -17.3900    20.7630    -8.0150 ca         1 R4T       0.440800
      2 C2         -17.3720    19.9320    -6.8870 ca         1 R4T      -0.119700
      3 C3         -17.6270    18.6070    -7.1620 ca         1 R4T       0.579700
      4 C4         -17.1850    21.8870    -6.1570 cc         1 R4T       0.524200
      5 C5         -19.5180    22.8270    -9.3250 c5         1 R4T       0.122100
      6 C6         -18.0640    23.2070    -9.5730 c5         1 R4T       0.124100
      7 N1         -17.5080    20.3450    -9.2590 nb         1 R4T      -0.646000
      8 N2         -17.2910    22.0310    -7.5180 na         1 R4T      -0.272500
      9 N3         -17.2220    20.6590    -5.7420 nd         1 R4T      -0.567600
     10 O1         -18.6200    23.9450    -7.4570 os         1 R4T      -0.368600
     11 C7         -17.5680    23.3310    -8.1370 c5         1 R4T       0.233800
     12 C8         -19.8700    23.6310    -8.0660 c5         1 R4T       0.130100
     13 C9         -20.7910    22.9250    -7.0980 c3         1 R4T       0.171900
     14 C10        -18.9630    14.7070    -8.8900 ca         1 R4T       0.675400
     15 C11        -20.0430    16.2550   -10.0390 ca         1 R4T       0.440800
     16 C12        -19.0640    16.2860   -11.0430 ca         1 R4T      -0.119700
     17 C13        -18.0110    15.4250   -10.8190 ca         1 R4T       0.579700
     18 C14        -20.5200    17.6950   -11.6080 cc         1 R4T       0.524200
     19 C15        -21.8690    19.4150    -8.4980 c5         1 R4T       0.122100
     20 O2         -20.2180    21.6660    -6.7200 os         1 R4T      -0.588700
     21 C17        -22.2370    17.4600    -9.7460 c5         1 R4T       0.233800
     22 C18        -22.8910    19.6910    -9.5970 c5         1 R4T       0.130100
     23 C19        -22.6440    20.9200   -10.4350 c3         1 R4T       0.171900
     24 C16        -22.0000    17.9150    -8.3060 c5         1 R4T       0.124100
     25 N4         -17.9580    14.6510    -9.7660 nb         1 R4T      -0.729000
     26 N          -17.7490    18.1570    -8.3860 nb         1 R4T      -0.729000
     27 C          -17.6550    19.0390    -9.3820 ca         1 R4T       0.675400
     28 N11        -17.8870    17.6710    -6.0890 nz         1 R4T      -0.820300
     29 F6         -23.1410    17.6460    -7.5780 f          1 R4T      -0.181300
     30 F9         -18.0170    24.4740   -10.1190 f          1 R4T      -0.181300
     31 N5         -20.0300    15.4830    -8.9720 nb         1 R4T      -0.646000
     32 N6         -20.9660    17.1810   -10.4200 na         1 R4T      -0.272500
     33 N7         -19.3870    17.1920   -12.0090 nd         1 R4T      -0.567600
     34 N9         -16.8960    15.3250   -11.7450 nz         1 R4T      -0.820300
     35 O10        -20.3940    23.1580   -10.3870 os         1 R4T      -0.501700
     36 O5         -22.8710    18.5110   -10.3980 os         1 R4T      -0.368600
     37 O7         -22.1950    20.1650    -7.3440 os         1 R4T      -0.501700
     38 O8         -21.3400    20.8510   -11.0100 os         1 R4T      -0.588700
     39 P          -21.0930    20.4330    -6.2090 p5         1 R4T       1.328000
     40 P1         -20.5510    22.1110   -11.6010 p5         1 R4T       1.328000
     41 S3         -22.4040    21.1010    -4.7570 sh         1 R4T      -0.379700
     42 S4         -21.8750    23.2560   -12.7120 sh         1 R4T      -0.379700
     43 H4         -17.0840    22.7490    -5.5130 h5         1 R4T       0.115800
     44 H5         -19.5710    21.7550    -9.1210 h1         1 R4T       0.048200
     45 H6         -17.5080    22.5250   -10.2100 h1         1 R4T       0.118700
     46 H7         -16.6760    23.9530    -8.0520 h2         1 R4T       0.151200
     47 H8         -20.3650    24.5670    -8.3480 h1         1 R4T       0.134700
     48 H91        -20.9330    23.5350    -6.2040 h1         1 R4T       0.085200
     49 H92        -21.7640    22.7970    -7.5790 h1         1 R4T       0.085200
     50 H10        -18.8930    14.0500    -8.0340 h5         1 R4T       0.082600
     51 H14        -21.0750    18.4450   -12.1470 h5         1 R4T       0.115800
     52 H15        -20.8540    19.6320    -8.8510 h1         1 R4T       0.048200
     53 H17        -22.8480    16.5540    -9.7880 h2         1 R4T       0.151200
     54 H18        -23.8860    19.8110    -9.1520 h1         1 R4T       0.134700
     55 H192       -22.7550    21.7970    -9.7910 h1         1 R4T       0.085200
     56 H191       -23.3920    20.9900   -11.2270 h1         1 R4T       0.085200
     57 H16        -21.1520    17.4410    -7.8130 h1         1 R4T       0.118700
     58 H          -17.7230    18.6490   -10.3890 h5         1 R4T       0.082600
     59 H111       -17.9770    16.7150    -6.4440 hn         1 R4T       0.483967
     60 H113       -17.1630    17.6740    -5.3630 hn         1 R4T       0.483967
     61 HN92       -16.1790    14.6950   -11.3730 hn         1 R4T       0.483967
     62 HN9        -17.1850    14.9550   -12.6570 hn         1 R4T       0.483967
     63 HS3        -21.4470    21.3450    -3.8490 hs         1 R4T       0.316300
     64 HS4        -21.8920    22.4150   -13.7560 hs         1 R4T       0.316300
     65 HN91       -16.4520    16.2320   -11.9210 hn         1 R4T       0.483967
     66 H112       -18.7820    17.9370    -5.6460 hn         1 R4T       0.483967
     67 O          -20.2290    19.2840    -5.8680 o          1 R4T      -0.744800
     68 O22        -19.3020    21.6620   -12.2420 o          1 R4T      -0.744800
@<TRIPOS>BOND
     1     1     2 ar  
     2     1     7 ar  
     3     1     8 1   
     4     2     3 ar  
     5     2     9 1   
     6     3    26 ar  
     7     3    28 1   
     8     4     8 1   
     9     4     9 2   
    10     4    43 1   
    11     5     6 1   
    12     5    12 1   
    13     5    35 1   
    14     5    44 1   
    15     6    11 1   
    16     6    30 1   
    17     6    45 1   
    18     7    27 ar  
    19     8    11 1   
    20    10    11 1   
    21    10    12 1   
    22    11    46 1   
    23    12    13 1   
    24    12    47 1   
    25    13    20 1   
    26    13    48 1   
    27    13    49 1   
    28    14    25 ar  
    29    14    31 ar  
    30    14    50 1   
    31    15    16 ar  
    32    15    31 ar  
    33    15    32 1   
    34    16    17 ar  
    35    16    33 1   
    36    17    25 ar  
    37    17    34 1   
    38    18    32 1   
    39    18    33 2   
    40    18    51 1   
    41    19    22 1   
    42    19    24 1   
    43    19    37 1   
    44    19    52 1   
    45    20    39 1   
    46    21    24 1   
    47    21    32 1   
    48    21    36 1   
    49    21    53 1   
    50    22    23 1   
    51    22    36 1   
    52    22    54 1   
    53    23    38 1   
    54    23    55 1   
    55    23    56 1   
    56    24    29 1   
    57    24    57 1   
    58    26    27 ar  
    59    27    58 1   
    60    28    59 1   
    61    28    60 1   
    62    28    66 1   
    63    34    61 1   
    64    34    62 1   
    65    34    65 1   
    66    35    40 1   
    67    37    39 1   
    68    38    40 1   
    69    39    41 1   
    70    39    67 2   
    71    40    42 1   
    72    40    68 2   
    73    41    63 1   
    74    42    64 1   
@<TRIPOS>SUBSTRUCTURE
     1 R4T         1 TEMP              0 ****  ****    0 ROOT
