@<TRIPOS>MOLECULE
R4U
   33    35     1     0     0
SMALL
abcg2


@<TRIPOS>ATOM
      1 C10          7.1170     8.8640    31.9650 c6         1 R4U      -0.075400
      2 C13          3.5050    10.3330    27.3110 cc         1 R4U      -0.135100
      3 N01          2.6200    14.6500    30.4070 nv         1 R4U      -1.050900
      4 C02          2.8530    13.5200    29.6740 ca         1 R4U       0.411900
      5 N03          3.8080    12.6980    30.1960 nb         1 R4U      -0.354000
      6 C04          4.1420    11.5980    29.5280 ca         1 R4U       0.477900
      7 N05          5.0880    10.7800    30.0090 nu         1 R4U      -0.927100
      8 C06          5.7840    10.9590    31.2870 c6         1 R4U       0.247500
      9 C07          4.9300    10.4600    32.4570 c6         1 R4U      -0.090900
     10 C08          4.6120     8.9590    32.3400 c6         1 R4U      -0.075400
     11 C09          5.7840     8.1520    31.7400 c6         1 R4U      -0.074400
     12 C11          7.1450    10.2290    31.2590 c6         1 R4U      -0.090900
     13 C12          3.4820    11.3170    28.2920 ca         1 R4U      -0.324000
     14 N14          2.5920    10.7070    26.4040 na         1 R4U      -0.015500
     15 N15          1.9520    11.8710    26.6960 nc         1 R4U      -0.282400
     16 C16          2.4970    12.2490    27.8590 ca         1 R4U       0.048000
     17 N17          2.1650    13.3680    28.5500 nb         1 R4U      -0.265000
     18 H1           7.2700     9.0010    33.0400 hc         1 R4U       0.041950
     19 H2           7.9470     8.2510    31.6090 hc         1 R4U       0.041950
     20 H4           1.7740    15.1570    30.2070 hn         1 R4U       0.483000
     21 H5           2.9230    14.6400    31.3680 hn         1 R4U       0.483000
     22 H6           5.2830     9.9440    29.4820 hn         1 R4U       0.490000
     23 H7           5.9470    12.0300    31.3960 h1         1 R4U       0.081700
     24 H8           4.0100    11.0420    32.5200 hc         1 R4U       0.051950
     25 H9           5.4910    10.6550    33.3760 hc         1 R4U       0.051950
     26 H10          3.7200     8.8200    31.7270 hc         1 R4U       0.041950
     27 H11          4.3680     8.5760    33.3340 hc         1 R4U       0.041950
     28 H12          5.8090     7.1490    32.1720 hc         1 R4U       0.034700
     29 H13          5.6330     8.0150    30.6640 hc         1 R4U       0.034700
     30 H14          7.4550    10.1040    30.2180 hc         1 R4U       0.051950
     31 H15          7.8940    10.8700    31.7290 hc         1 R4U       0.051950
     32 H16          2.3530    10.2130    25.5580 hn         1 R4U       0.373000
     33 H3           4.0800     9.4290    27.1980 h4         1 R4U       0.219000
@<TRIPOS>BOND
     1     1    11 1   
     2     1    12 1   
     3     1    18 1   
     4     1    19 1   
     5     2    13 2   
     6     2    14 1   
     7     2    33 1   
     8     3     4 1   
     9     3    20 1   
    10     3    21 1   
    11     4     5 ar  
    12     4    17 ar  
    13     5     6 ar  
    14     6     7 1   
    15     6    13 ar  
    16     7     8 1   
    17     7    22 1   
    18     8     9 1   
    19     8    12 1   
    20     8    23 1   
    21     9    10 1   
    22     9    24 1   
    23     9    25 1   
    24    10    11 1   
    25    10    26 1   
    26    10    27 1   
    27    11    28 1   
    28    11    29 1   
    29    12    30 1   
    30    12    31 1   
    31    13    16 ar  
    32    14    15 1   
    33    14    32 1   
    34    15    16 2   
    35    16    17 ar  
@<TRIPOS>SUBSTRUCTURE
     1 R4U         1 TEMP              0 ****  ****    0 ROOT
