@<TRIPOS>MOLECULE
R4U
   33    35     1     0     0
SMALL
No Charge or Current Charge


@<TRIPOS>ATOM
      1 C10          7.1160     8.8310    31.9420 c6         1 R4U      -0.075400
      2 C13          3.5030    10.2440    27.5920 cc         1 R4U      -0.135100
      3 N01          2.6730    14.8200    30.2870 nv         1 R4U      -1.050900
      4 C02          2.9420    13.6540    29.6550 ca         1 R4U       0.411900
      5 N03          3.9740    12.9540    30.1490 nb         1 R4U      -0.354000
      6 C04          4.2380    11.7960    29.5200 ca         1 R4U       0.477900
      7 N05          5.2850    11.0100    29.9710 nu         1 R4U      -0.927100
      8 C06          5.8270    11.0290    31.3420 c6         1 R4U       0.247500
      9 C07          4.8080    10.3970    32.3310 c6         1 R4U      -0.090900
     10 C08          4.5500     8.8840    32.0560 c6         1 R4U      -0.075400
     11 C09          5.8030     8.1310    31.5230 c6         1 R4U      -0.074400
     12 C11          7.1980    10.2820    31.3820 c6         1 R4U      -0.090900
     13 C12          3.4570    11.3970    28.4290 ca         1 R4U      -0.324000
     14 N14          2.4650    10.4110    26.6840 na         1 R4U      -0.015500
     15 N15          1.7590    11.6030    26.8940 nc         1 R4U      -0.282400
     16 C16          2.4130    12.1780    27.9880 ca         1 R4U       0.048000
     17 N17          2.1430    13.3400    28.6140 nb         1 R4U      -0.265000
     18 H1           7.1810     8.8530    33.0390 hc         1 R4U       0.041950
     19 H2           7.9820     8.2500    31.5970 hc         1 R4U       0.041950
     20 H4           1.7780    15.2680    30.1070 hn         1 R4U       0.483000
     21 H5           3.0940    14.9830    31.1970 hn         1 R4U       0.483000
     22 H6           5.3960    10.1490    29.4450 hn         1 R4U       0.490000
     23 H7           6.0120    12.0710    31.6470 h1         1 R4U       0.081700
     24 H8           3.8580    10.9480    32.3130 hc         1 R4U       0.051950
     25 H9           5.1980    10.5140    33.3510 hc         1 R4U       0.051950
     26 H10          3.7310     8.7730    31.3320 hc         1 R4U       0.041950
     27 H11          4.1990     8.4100    32.9830 hc         1 R4U       0.041950
     28 H12          5.7950     7.0940    31.8850 hc         1 R4U       0.034700
     29 H13          5.7600     8.0720    30.4270 hc         1 R4U       0.034700
     30 H14          7.6540    10.2710    30.3820 hc         1 R4U       0.051950
     31 H15          7.8950    10.8530    32.0100 hc         1 R4U       0.051950
     32 H16          2.2050     9.7730    25.9350 hn         1 R4U       0.373000
     33 H3           4.1440     9.3680    27.5600 h4         1 R4U       0.219000
@<TRIPOS>BOND
     1     1    11 1   
     2     1    12 1   
     3     1    18 1   
     4     1    19 1   
     5     2    13 2   
     6     2    14 1   
     7     2    33 1   
     8     3     4 1   
     9     3    20 1   
    10     3    21 1   
    11     4     5 ar  
    12     4    17 ar  
    13     5     6 ar  
    14     6     7 1   
    15     6    13 ar  
    16     7     8 1   
    17     7    22 1   
    18     8     9 1   
    19     8    12 1   
    20     8    23 1   
    21     9    10 1   
    22     9    24 1   
    23     9    25 1   
    24    10    11 1   
    25    10    26 1   
    26    10    27 1   
    27    11    28 1   
    28    11    29 1   
    29    12    30 1   
    30    12    31 1   
    31    13    16 ar  
    32    14    15 1   
    33    14    32 1   
    34    15    16 2   
    35    16    17 ar  
@<TRIPOS>SUBSTRUCTURE
     1 R4U         1 TEMP              0 ****  ****    0 ROOT
