@<TRIPOS>MOLECULE
R4V
   49    53     1     0     0
SMALL
abcg2


@<TRIPOS>ATOM
      1 N3           8.1870   -10.0440    16.1080 nb         1 R4V      -0.324000
      2 C4           6.7310    -5.8500    14.8450 cx         1 R4V       0.034400
      3 N2           9.4410   -11.7000    14.9210 nb         1 R4V      -0.265000
      4 C7           8.2090    -9.2040    15.0580 ca         1 R4V       0.423900
      5 C6           6.8490    -7.7000    16.4350 c5         1 R4V       0.262800
      6 C9           9.4580   -10.8710    13.8700 ca         1 R4V       0.150900
      7 C13          7.5530   -10.7470    18.8560 cc         1 R4V      -0.178000
      8 C8           8.8730    -9.6350    13.8870 ca         1 R4V      -0.081000
      9 N5           7.7170   -12.2620    20.5030 nc         1 R4V      -0.509800
     10 C18          3.7420    -5.0640    11.1500 cx         1 R4V       0.161000
     11 C16          4.0260    -4.6300    12.5450 cx         1 R4V      -0.283700
     12 C2           7.3760    -5.1890    16.0310 cx         1 R4V      -0.091700
     13 C3           6.3610    -6.2880    16.2380 cx         1 R4V      -0.124700
     14 C5           7.4710    -6.9870    14.1660 c5         1 R4V       0.253800
     15 N1           7.5880    -8.0190    15.2030 nh         1 R4V      -0.786300
     16 C10          8.7950   -11.2260    16.0010 ca         1 R4V       0.417900
     17 N4           8.7750   -12.0650    17.0780 nu         1 R4V      -0.900900
     18 C11          8.2420   -11.8360    18.3420 cd         1 R4V       0.187000
     19 C12          8.3130   -12.7510    19.4140 cd         1 R4V       0.206900
     20 N6           7.2600   -11.0550    20.1460 na         1 R4V       0.117800
     21 C14          6.6260   -10.1890    21.1200 c3         1 R4V       0.079900
     22 F1           8.9320    -8.8600    12.7680 f          1 R4V      -0.183000
     23 C15          4.7270    -5.5730    13.4760 c          1 R4V       0.634100
     24 O1           4.3140    -6.7070    13.7020 o          1 R4V      -0.576100
     25 C17          2.6030    -4.9830    12.0630 cx         1 R4V      -0.122400
     26 F3           4.1850    -6.2640    10.7020 f          1 R4V      -0.075000
     27 H9           6.0100    -8.3870    16.5670 h1         1 R4V       0.065200
     28 H10          7.5070    -7.8100    17.2990 h1         1 R4V       0.065200
     29 H11          9.9620   -11.2070    12.9700 h4         1 R4V       0.034100
     30 H14          7.2600    -9.8170    18.4110 h4         1 R4V       0.173000
     31 H3           4.2550    -3.5780    12.6570 hc         1 R4V       0.105700
     32 H5           9.0120    -5.1090    17.4160 hc         1 R4V       0.047367
     33 H6           9.2220    -6.3280    16.1610 hc         1 R4V       0.047367
     34 H4           9.4340    -4.6210    15.7720 hc         1 R4V       0.047367
     35 H1           6.9700    -4.2030    16.2290 hc         1 R4V       0.078700
     36 H2           5.3950    -6.0270    16.6460 hc         1 R4V       0.107700
     37 H8           6.8870    -7.3440    13.3180 h1         1 R4V       0.073200
     38 H7           8.4550    -6.6850    13.8090 h1         1 R4V       0.073200
     39 H12          9.2510   -12.9420    16.9380 hn         1 R4V       0.518000
     40 H13          8.7640   -13.7320    19.4230 h4         1 R4V       0.039100
     41 H16          5.9120   -10.7660    21.7060 h1         1 R4V       0.054700
     42 H15          7.3700    -9.7500    21.7870 h1         1 R4V       0.054700
     43 H17          6.1040    -9.3940    20.5920 h1         1 R4V       0.054700
     44 H18          6.1580    -4.1490    13.7560 hn         1 R4V       0.324500
     45 H19          1.9060    -4.1660    11.9430 hc         1 R4V       0.110700
     46 H20          2.2090    -5.9210    12.4320 hc         1 R4V       0.110700
     47 N7           5.8570    -5.0730    14.0250 ns         1 R4V      -0.469900
     48 C1           8.8420    -5.3260    16.3590 c3         1 R4V      -0.069100
     49 F2           3.8850    -4.1590    10.1500 f          1 R4V      -0.075000
@<TRIPOS>BOND
     1     1     4 ar  
     2     1    16 ar  
     3     2    12 1   
     4     2    13 1   
     5     2    14 1   
     6     2    47 1   
     7     3     6 ar  
     8     3    16 ar  
     9     4     8 ar  
    10     4    15 1   
    11     5    13 1   
    12     5    15 1   
    13     5    27 1   
    14     5    28 1   
    15     6     8 ar  
    16     6    29 1   
    17     7    18 2   
    18     7    20 1   
    19     7    30 1   
    20     8    22 1   
    21     9    19 2   
    22     9    20 1   
    23    10    11 1   
    24    10    25 1   
    25    10    26 1   
    26    10    49 1   
    27    11    23 1   
    28    11    25 1   
    29    11    31 1   
    30    12    13 1   
    31    12    35 1   
    32    12    48 1   
    33    13    36 1   
    34    14    15 1   
    35    14    37 1   
    36    14    38 1   
    37    16    17 1   
    38    17    18 1   
    39    17    39 1   
    40    18    19 1   
    41    19    40 1   
    42    20    21 1   
    43    21    41 1   
    44    21    42 1   
    45    21    43 1   
    46    23    24 2   
    47    23    47 1   
    48    25    45 1   
    49    25    46 1   
    50    32    48 1   
    51    33    48 1   
    52    34    48 1   
    53    44    47 1   
@<TRIPOS>SUBSTRUCTURE
     1 R4V         1 TEMP              0 ****  ****    0 ROOT
