@<TRIPOS>MOLECULE
R4V
   49    53     1     0     0
SMALL
No Charge or Current Charge


@<TRIPOS>ATOM
      1 N3           8.1330   -10.0680    16.1630 nb         1 R4V      -0.324000
      2 C4           6.6270    -5.8560    14.7000 cx         1 R4V       0.034400
      3 N2           9.2880   -11.8240    15.0080 nb         1 R4V      -0.265000
      4 C7           8.1110    -9.3160    15.0440 ca         1 R4V       0.423900
      5 C6           6.9000    -7.5670    16.4720 c5         1 R4V       0.262800
      6 C9           9.2750   -11.0870    13.8820 ca         1 R4V       0.150900
      7 C13          7.6530   -10.8360    19.0700 cc         1 R4V      -0.178000
      8 C8           8.6930    -9.8100    13.8450 ca         1 R4V      -0.081000
      9 N5           7.9280   -12.4660    20.7110 nc         1 R4V      -0.509800
     10 C18          4.0850    -4.3510    11.2830 cx         1 R4V       0.161000
     11 C16          3.6380    -4.6560    12.6920 cx         1 R4V      -0.283700
     12 C2           7.3530    -5.0910    15.7950 cx         1 R4V      -0.091700
     13 C3           6.3450    -6.1730    16.1430 cx         1 R4V      -0.124700
     14 C5           7.3800    -7.0470    14.0680 c5         1 R4V       0.253800
     15 N1           7.4830    -8.0450    15.1780 nh         1 R4V      -0.786300
     16 C10          8.7150   -11.2730    16.0880 ca         1 R4V       0.417900
     17 N4           8.7500   -12.0650    17.2270 nu         1 R4V      -0.900900
     18 C11          8.3010   -11.9060    18.5280 cd         1 R4V       0.187000
     19 C12          8.4440   -12.8680    19.5620 cd         1 R4V       0.206900
     20 N6           7.4420   -11.2110    20.3950 na         1 R4V       0.117800
     21 C14          6.7730   -10.4050    21.4280 c3         1 R4V       0.079900
     22 F1           8.7110    -9.1130    12.6820 f          1 R4V      -0.183000
     23 C15          4.4510    -5.6340    13.4900 c          1 R4V       0.634100
     24 O1           4.0720    -6.7700    13.7300 o          1 R4V      -0.576100
     25 C17          2.8280    -5.1500    11.5060 cx         1 R4V      -0.122400
     26 F3           5.1850    -4.9680    10.7670 f          1 R4V      -0.075000
     27 H9           6.0990    -8.2400    16.8090 h1         1 R4V       0.065200
     28 H10          7.6550    -7.5290    17.2710 h1         1 R4V       0.065200
     29 H11          9.7380   -11.5270    13.0000 h4         1 R4V       0.034100
     30 H14          7.3360    -9.8890    18.6590 h4         1 R4V       0.173000
     31 H3           3.2160    -3.8350    13.2650 hc         1 R4V       0.105700
     32 H5           9.0800    -4.8940    17.0970 hc         1 R4V       0.047367
     33 H6           9.2650    -6.2020    15.9260 hc         1 R4V       0.047367
     34 H4           9.4120    -4.5230    15.4000 hc         1 R4V       0.047367
     35 H1           7.0120    -4.0720    15.9630 hc         1 R4V       0.078700
     36 H2           5.3970    -5.8620    16.5740 hc         1 R4V       0.107700
     37 H8           6.8160    -7.4650    13.2230 h1         1 R4V       0.073200
     38 H7           8.3680    -6.7480    13.6910 h1         1 R4V       0.073200
     39 H12          9.2130   -12.9600    17.0580 hn         1 R4V       0.518000
     40 H13          8.9090   -13.8440    19.5040 h4         1 R4V       0.039100
     41 H16          5.8930   -10.9420    21.8000 h1         1 R4V       0.054700
     42 H15          7.4670   -10.2220    22.2570 h1         1 R4V       0.054700
     43 H17          6.4570    -9.4450    21.0030 h1         1 R4V       0.054700
     44 H18          5.8460    -4.1670    13.6650 hn         1 R4V       0.324500
     45 H19          1.8780    -4.6640    11.2950 hc         1 R4V       0.110700
     46 H20          2.8570    -6.2100    11.2620 hc         1 R4V       0.110700
     47 N7           5.6500    -5.1250    13.9310 ns         1 R4V      -0.469900
     48 C1           8.8580    -5.1950    16.0670 c3         1 R4V      -0.069100
     49 F2           3.9940    -3.0760    10.8160 f          1 R4V      -0.075000
@<TRIPOS>BOND
     1     1     4 ar  
     2     1    16 ar  
     3     2    12 1   
     4     2    13 1   
     5     2    14 1   
     6     2    47 1   
     7     3     6 ar  
     8     3    16 ar  
     9     4     8 ar  
    10     4    15 1   
    11     5    13 1   
    12     5    15 1   
    13     5    27 1   
    14     5    28 1   
    15     6     8 ar  
    16     6    29 1   
    17     7    18 2   
    18     7    20 1   
    19     7    30 1   
    20     8    22 1   
    21     9    19 2   
    22     9    20 1   
    23    10    11 1   
    24    10    25 1   
    25    10    26 1   
    26    10    49 1   
    27    11    23 1   
    28    11    25 1   
    29    11    31 1   
    30    12    13 1   
    31    12    35 1   
    32    12    48 1   
    33    13    36 1   
    34    14    15 1   
    35    14    37 1   
    36    14    38 1   
    37    16    17 1   
    38    17    18 1   
    39    17    39 1   
    40    18    19 1   
    41    19    40 1   
    42    20    21 1   
    43    21    41 1   
    44    21    42 1   
    45    21    43 1   
    46    23    24 2   
    47    23    47 1   
    48    25    45 1   
    49    25    46 1   
    50    32    48 1   
    51    33    48 1   
    52    34    48 1   
    53    44    47 1   
@<TRIPOS>SUBSTRUCTURE
     1 R4V         1 TEMP              0 ****  ****    0 ROOT
