@<TRIPOS>MOLECULE
R4W
   14    13     1     0     0
SMALL
abcg2


@<TRIPOS>ATOM
      1 C2          22.4310    30.8410    -8.3950 c3         1 R4W      -0.069100
      2 C           21.2250    33.8710    -9.1030 c3         1 R4W      -0.335100
      3 O           19.0830    32.5020    -9.7700 o          1 R4W      -0.518000
      4 C1          21.2200    31.0350    -9.2870 c3         1 R4W      -0.294400
      5 O1          19.9040    32.3530    -7.3990 o          1 R4W      -0.518000
      6 S           20.2030    32.4400    -8.8290 s6         1 R4W       1.076000
      7 H1          22.9630    29.9460    -8.7140 hc         1 R4W       0.049367
      8 H2          23.1280    31.6750    -8.4610 hc         1 R4W       0.049367
      9 H3          22.1440    30.7040    -7.3540 hc         1 R4W       0.049367
     10 H4          22.0910    33.8530    -8.4460 h1         1 R4W       0.102700
     11 H5          21.5380    33.9000   -10.1450 h1         1 R4W       0.102700
     12 H6          20.6100    34.7420    -8.8740 h1         1 R4W       0.102700
     13 H7          20.5350    30.1860    -9.2290 h1         1 R4W       0.101200
     14 H8          21.4930    31.1760   -10.3340 h1         1 R4W       0.101200
@<TRIPOS>BOND
     1     1     4 1   
     2     1     7 1   
     3     1     8 1   
     4     1     9 1   
     5     2     6 1   
     6     2    10 1   
     7     2    11 1   
     8     2    12 1   
     9     3     6 2   
    10     4     6 1   
    11     4    13 1   
    12     4    14 1   
    13     5     6 2   
@<TRIPOS>SUBSTRUCTURE
     1 R4W         1 TEMP              0 ****  ****    0 ROOT
