@<TRIPOS>MOLECULE
R4W
   14    13     1     0     0
SMALL
No Charge or Current Charge


@<TRIPOS>ATOM
      1 C2          22.4550    30.8390    -8.4090 c3         1 R4W      -0.069100
      2 C           21.2250    33.8810    -9.0880 c3         1 R4W      -0.335100
      3 O           19.0680    32.5380    -9.8000 o          1 R4W      -0.518000
      4 C1          21.1920    31.0270    -9.2870 c3         1 R4W      -0.294400
      5 O1          19.8670    32.3660    -7.4010 o          1 R4W      -0.518000
      6 S           20.1710    32.4530    -8.8350 s6         1 R4W       1.076000
      7 H1          23.0010    29.9390    -8.7190 hc         1 R4W       0.049367
      8 H2          23.1370    31.6930    -8.5040 hc         1 R4W       0.049367
      9 H3          22.1880    30.7230    -7.3520 hc         1 R4W       0.049367
     10 H4          22.0590    33.8170    -8.3810 h1         1 R4W       0.102700
     11 H5          21.5790    33.8570   -10.1240 h1         1 R4W       0.102700
     12 H6          20.6200    34.7740    -8.8990 h1         1 R4W       0.102700
     13 H7          20.5370    30.1520    -9.2030 h1         1 R4W       0.101200
     14 H8          21.4690    31.1660   -10.3380 h1         1 R4W       0.101200
@<TRIPOS>BOND
     1     1     4 1   
     2     1     7 1   
     3     1     8 1   
     4     1     9 1   
     5     2     6 1   
     6     2    10 1   
     7     2    11 1   
     8     2    12 1   
     9     3     6 2   
    10     4     6 1   
    11     4    13 1   
    12     4    14 1   
    13     5     6 2   
@<TRIPOS>SUBSTRUCTURE
     1 R4W         1 TEMP              0 ****  ****    0 ROOT
