@<TRIPOS>MOLECULE
R4X
   52    56     1     0     0
SMALL
abcg2


@<TRIPOS>ATOM
      1 N1         -20.0250     5.1200    27.3790 ns         1 R4X      -0.159000
      2 N3         -19.9080     8.3840    29.3400 nq         1 R4X      -0.778500
      3 C4         -22.3660     6.3490    31.4650 c6         1 R4X       0.262100
      4 C5         -22.2580     6.4490    29.0150 c6         1 R4X       0.220800
      5 C6         -21.9310     4.9570    28.8710 c6         1 R4X      -0.094400
      6 C7         -20.4240     4.7800    28.6380 c          1 R4X       0.612100
      7 C8         -18.6890     5.2750    26.9590 ca         1 R4X      -0.077000
      8 C10        -16.0700     5.5050    26.1960 ca         1 R4X       0.345900
      9 C13        -17.4180     8.6580    24.7570 ca         1 R4X      -0.111000
     10 C15        -19.2130     7.4790    25.8780 ca         1 R4X      -0.102000
     11 C17        -22.3850     4.2030    30.0950 ca         1 R4X      -0.048300
     12 C20        -17.8990     8.9340    28.9320 cy         1 R4X      -0.102400
     13 C21        -18.5870     7.8190    29.7470 cy         1 R4X       0.203300
     14 O2         -20.8020     8.6950    31.7350 o          1 R4X      -0.572500
     15 O1         -22.1030     9.4000    29.7610 o          1 R4X      -0.572500
     16 C19        -19.2730     9.6290    28.8040 cy         1 R4X       0.203300
     17 N          -21.7000     6.9120    30.2870 n3         1 R4X      -0.767500
     18 C3         -22.5670     4.8610    31.3110 ca         1 R4X      -0.061300
     19 C2         -22.9790     4.1310    32.4270 ca         1 R4X      -0.100000
     20 C1         -23.2060     2.7660    32.3510 ca         1 R4X      -0.090000
     21 C18        -22.6140     2.8300    30.0090 ca         1 R4X      -0.087000
     22 C          -23.0180     2.1280    31.1300 ca         1 R4X       0.126000
     23 CL         -23.3020     0.4030    31.0090 cl         1 R4X      -0.207000
     24 O          -19.6560     4.4110    29.5110 o          1 R4X      -0.555100
     25 C16        -18.3240     6.4320    26.2150 ca         1 R4X      -0.032000
     26 C14        -18.7660     8.5620    25.1640 ca         1 R4X      -0.096000
     27 C12        -16.5310     7.6640    25.0800 ca         1 R4X      -0.083000
     28 C11        -16.9620     6.5360    25.8160 ca         1 R4X      -0.090000
     29 N2         -16.4300     4.4500    26.8890 nb         1 R4X      -0.643000
     30 C9         -17.7300     4.3360    27.2580 ca         1 R4X       0.323900
     31 H1         -20.7390     5.4400    26.7420 hn         1 R4X       0.151000
     32 H2         -21.7530     6.5500    32.3400 h1         1 R4X       0.070700
     33 H3         -23.3420     6.8270    31.6250 h1         1 R4X       0.070700
     34 H4         -21.8260     7.0270    28.2040 h1         1 R4X       0.061700
     35 H5         -23.3430     6.5890    28.9990 h1         1 R4X       0.061700
     36 H6         -22.4590     4.5800    27.9920 hc         1 R4X       0.070700
     37 H7         -15.0270     5.5790    25.9020 h4         1 R4X       0.023100
     38 H8         -17.0890     9.5230    24.1960 ha         1 R4X       0.120000
     39 H9         -20.2440     7.4440    26.1990 ha         1 R4X       0.114000
     40 H10        -17.5080     8.5880    27.9790 hc         1 R4X       0.066700
     41 H11        -17.1370     9.4990    29.4610 hc         1 R4X       0.066700
     42 H12        -18.4430     6.7930    29.4170 h1         1 R4X       0.070200
     43 H13        -18.4190     7.8920    30.8220 h1         1 R4X       0.070200
     44 H14        -19.3940    10.4870    29.4660 h1         1 R4X       0.070200
     45 H15        -19.6150     9.8760    27.8030 h1         1 R4X       0.070200
     46 H16        -23.1220     4.6390    33.3730 ha         1 R4X       0.122000
     47 H17        -23.5210     2.2070    33.2210 ha         1 R4X       0.133000
     48 H18        -22.4740     2.3170    29.0670 ha         1 R4X       0.129000
     49 H19        -19.4540     9.3610    24.9190 ha         1 R4X       0.118000
     50 H20        -15.4910     7.7280    24.7840 ha         1 R4X       0.121000
     51 H21        -17.9960     3.4510    27.8180 h4         1 R4X       0.042100
     52 S          -21.1770     8.4610    30.3580 s6         1 R4X       1.310200
@<TRIPOS>BOND
     1     1     6 1   
     2     1     7 1   
     3     1    31 1   
     4     2    13 1   
     5     2    16 1   
     6     2    52 1   
     7     3    17 1   
     8     3    18 1   
     9     3    32 1   
    10     3    33 1   
    11     4     5 1   
    12     4    17 1   
    13     4    34 1   
    14     4    35 1   
    15     5     6 1   
    16     5    11 1   
    17     5    36 1   
    18     6    24 2   
    19     7    25 ar  
    20     7    30 ar  
    21     8    28 ar  
    22     8    29 ar  
    23     8    37 1   
    24     9    26 ar  
    25     9    27 ar  
    26     9    38 1   
    27    10    25 ar  
    28    10    26 ar  
    29    10    39 1   
    30    11    18 ar  
    31    11    21 ar  
    32    12    13 1   
    33    12    16 1   
    34    12    40 1   
    35    12    41 1   
    36    13    42 1   
    37    13    43 1   
    38    14    52 2   
    39    15    52 2   
    40    16    44 1   
    41    16    45 1   
    42    17    52 1   
    43    18    19 ar  
    44    19    20 ar  
    45    19    46 1   
    46    20    22 ar  
    47    20    47 1   
    48    21    22 ar  
    49    21    48 1   
    50    22    23 1   
    51    25    28 ar  
    52    26    49 1   
    53    27    28 ar  
    54    27    50 1   
    55    29    30 ar  
    56    30    51 1   
@<TRIPOS>SUBSTRUCTURE
     1 R4X         1 TEMP              0 ****  ****    0 ROOT
