@<TRIPOS>MOLECULE
R4X
   52    56     1     0     0
SMALL
No Charge or Current Charge


@<TRIPOS>ATOM
      1 N1         -19.7880     5.3070    27.5570 ns         1 R4X      -0.159000
      2 N3         -20.1970     8.8620    29.5770 nq         1 R4X      -0.778500
      3 C4         -22.3690     6.2320    31.5830 c6         1 R4X       0.262100
      4 C5         -22.0420     6.5040    29.1790 c6         1 R4X       0.220800
      5 C6         -21.8010     4.9940    28.9570 c6         1 R4X      -0.094400
      6 C7         -20.3020     4.7210    28.7080 c          1 R4X       0.612100
      7 C8         -18.4760     5.2970    27.0000 ca         1 R4X      -0.077000
      8 C10        -15.9190     5.2260    25.9420 ca         1 R4X       0.345900
      9 C13        -17.2330     8.2770    24.2540 ca         1 R4X      -0.111000
     10 C15        -18.9660     7.3460    25.6900 ca         1 R4X      -0.102000
     11 C17        -22.3690     4.1400    30.0970 ca         1 R4X      -0.048300
     12 C20        -18.3790     9.4190    28.8290 cy         1 R4X      -0.102400
     13 C21        -18.8610     8.2200    29.7060 cy         1 R4X       0.203300
     14 O2         -20.7520     8.7850    32.0690 o          1 R4X      -0.572500
     15 O1         -22.6310     9.2280    30.3760 o          1 R4X      -0.572500
     16 C19        -19.5320    10.1910    29.5490 cy         1 R4X       0.203300
     17 N          -21.5680     6.8910    30.5230 n3         1 R4X      -0.767500
     18 C3         -22.6160     4.7310    31.3570 ca         1 R4X      -0.061300
     19 C2         -23.1220     3.9410    32.4070 ca         1 R4X      -0.100000
     20 C1         -23.3760     2.5720    32.2070 ca         1 R4X      -0.090000
     21 C18        -22.6280     2.7700    29.9000 ca         1 R4X      -0.087000
     22 C          -23.1300     1.9900    30.9540 ca         1 R4X       0.126000
     23 Cl         -23.4490     0.2780    30.7030 cl         1 R4X      -0.207000
     24 O          -19.6240     4.0410    29.4710 o          1 R4X      -0.555100
     25 C16        -18.0950     6.3030    26.0800 ca         1 R4X      -0.032000
     26 C14        -18.5330     8.3260    24.7800 ca         1 R4X      -0.096000
     27 C12        -16.3590     7.2460    24.6360 ca         1 R4X      -0.083000
     28 C11        -16.7880     6.2620    25.5480 ca         1 R4X      -0.090000
     29 N2         -16.2750     4.2550    26.8120 nb         1 R4X      -0.643000
     30 C9         -17.5260     4.2970    27.3260 ca         1 R4X       0.323900
     31 H1         -20.4560     5.8540    27.0310 hn         1 R4X       0.151000
     32 H2         -21.8740     6.3550    32.5570 h1         1 R4X       0.070700
     33 H3         -23.3530     6.7180    31.6690 h1         1 R4X       0.070700
     34 H4         -21.5400     7.0760    28.3860 h1         1 R4X       0.061700
     35 H5         -23.1170     6.7200    29.0800 h1         1 R4X       0.061700
     36 H6         -22.3110     4.7910    28.0060 hc         1 R4X       0.070700
     37 H7         -14.9050     5.1690    25.5480 h4         1 R4X       0.023100
     38 H8         -16.9010     9.0380    23.5500 ha         1 R4X       0.120000
     39 H9         -19.9760     7.4160    26.0860 ha         1 R4X       0.114000
     40 H10        -18.5200     9.2870    27.7510 hc         1 R4X       0.066700
     41 H11        -17.3640     9.7790    29.0200 hc         1 R4X       0.066700
     42 H12        -18.7490     7.2320    29.2480 h1         1 R4X       0.070200
     43 H13        -18.4340     8.2160    30.7180 h1         1 R4X       0.070200
     44 H14        -19.2430    10.5980    30.5270 h1         1 R4X       0.070200
     45 H15        -20.0230    10.9650    28.9470 h1         1 R4X       0.070200
     46 H16        -23.3210     4.3870    33.3800 ha         1 R4X       0.122000
     47 H17        -23.7660     1.9650    33.0200 ha         1 R4X       0.133000
     48 H18        -22.4370     2.3090    28.9340 ha         1 R4X       0.129000
     49 H19        -19.2080     9.1280    24.4860 ha         1 R4X       0.118000
     50 H20        -15.3510     7.2140    24.2260 ha         1 R4X       0.121000
     51 H21        -17.7700     3.4810    28.0040 h4         1 R4X       0.042100
     52 S          -21.3830     8.5690    30.7650 s6         1 R4X       1.310200
@<TRIPOS>BOND
     1     1     6 1   
     2     1     7 1   
     3     1    31 1   
     4     2    13 1   
     5     2    16 1   
     6     2    52 1   
     7     3    17 1   
     8     3    18 1   
     9     3    32 1   
    10     3    33 1   
    11     4     5 1   
    12     4    17 1   
    13     4    34 1   
    14     4    35 1   
    15     5     6 1   
    16     5    11 1   
    17     5    36 1   
    18     6    24 2   
    19     7    25 ar  
    20     7    30 ar  
    21     8    28 ar  
    22     8    29 ar  
    23     8    37 1   
    24     9    26 ar  
    25     9    27 ar  
    26     9    38 1   
    27    10    25 ar  
    28    10    26 ar  
    29    10    39 1   
    30    11    18 ar  
    31    11    21 ar  
    32    12    13 1   
    33    12    16 1   
    34    12    40 1   
    35    12    41 1   
    36    13    42 1   
    37    13    43 1   
    38    14    52 2   
    39    15    52 2   
    40    16    44 1   
    41    16    45 1   
    42    17    52 1   
    43    18    19 ar  
    44    19    20 ar  
    45    19    46 1   
    46    20    22 ar  
    47    20    47 1   
    48    21    22 ar  
    49    21    48 1   
    50    22    23 1   
    51    25    28 ar  
    52    26    49 1   
    53    27    28 ar  
    54    27    50 1   
    55    29    30 ar  
    56    30    51 1   
@<TRIPOS>SUBSTRUCTURE
     1 R4X         1 TEMP              0 ****  ****    0 ROOT
