@<TRIPOS>MOLECULE
R4Z
   24    25     1     0     0
SMALL
No Charge or Current Charge


@<TRIPOS>ATOM
      1 C13          4.3930    22.8060     9.8820 c3         1 R4Z      -0.023100
      2 C15          4.7990    20.3870     9.2220 ca         1 R4Z      -0.063000
      3 C02          5.3880    17.9500     8.4970 c          1 R4Z       0.586900
      4 C03          6.6640    17.4240     8.0010 cc         1 R4Z      -0.382200
      5 C04          7.6100    18.4280     7.9580 cd         1 R4Z      -0.029200
      6 C05          5.6670    19.3940     8.7490 ca         1 R4Z      -0.204600
      7 C06          6.9940    19.6700     8.4310 ca         1 R4Z      -0.061800
      8 C07          7.5300    20.9700     8.5710 ca         1 R4Z      -0.089600
      9 C08          8.9730    21.3090     8.2360 c          1 R4Z       0.708600
     10 C11          6.6520    21.9790     9.0450 ca         1 R4Z      -0.064000
     11 C12          5.3010    21.6970     9.3690 ca         1 R4Z      -0.122300
     12 C14          4.5000    22.9850    11.4080 c3         1 R4Z      -0.086100
     13 O01          4.3360    17.3490     8.6640 o          1 R4Z      -0.552100
     14 O09          9.2330    22.4560     7.8980 o          1 R4Z      -0.715500
     15 O10          9.8270    20.4410     8.3460 o          1 R4Z      -0.715500
     16 H1           4.6430    23.7570     9.3950 hc         1 R4Z       0.036200
     17 H2           3.3490    22.5950     9.6220 hc         1 R4Z       0.036200
     18 H3           3.7660    20.1490     9.4670 ha         1 R4Z       0.105000
     19 H4           6.7850    16.3830     7.7210 ha         1 R4Z       0.193000
     20 H5           8.6390    18.3080     7.6250 ha         1 R4Z       0.228000
     21 H6           7.0240    22.9930     9.1700 ha         1 R4Z       0.131000
     22 H7           3.8350    23.7880    11.7470 hc         1 R4Z       0.028033
     23 H8           4.2160    22.0600    11.9250 hc         1 R4Z       0.028033
     24 H9           5.5260    23.2420    11.6960 hc         1 R4Z       0.028033
@<TRIPOS>BOND
     1     1    11 1   
     2     1    12 1   
     3     1    16 1   
     4     1    17 1   
     5     2     6 ar  
     6     2    11 ar  
     7     2    18 1   
     8     3     4 1   
     9     3     6 1   
    10     3    13 2   
    11     4     5 2   
    12     4    19 1   
    13     5     7 1   
    14     5    20 1   
    15     6     7 ar  
    16     7     8 ar  
    17     8     9 1   
    18     8    10 ar  
    19     9    14 1   
    20     9    15 1   
    21    10    11 ar  
    22    10    21 1   
    23    12    22 1   
    24    12    23 1   
    25    12    24 1   
@<TRIPOS>SUBSTRUCTURE
     1 R4Z         1 TEMP              0 ****  ****    0 ROOT
