@<TRIPOS>MOLECULE
R4Z
   24    25     1     0     0
SMALL
abcg2


@<TRIPOS>ATOM
      1 C13          4.4770    22.8660     9.8800 c3         1 R4Z      -0.023100
      2 C15          4.8340    20.4440     9.2440 ca         1 R4Z      -0.063000
      3 C02          5.4000    17.9880     8.5830 c          1 R4Z       0.586900
      4 C03          6.6780    17.4190     8.0750 cc         1 R4Z      -0.382200
      5 C04          7.5900    18.4040     7.9920 cd         1 R4Z      -0.029200
      6 C05          5.6660    19.4490     8.7930 ca         1 R4Z      -0.204600
      7 C06          7.0040    19.6920     8.4370 ca         1 R4Z      -0.061800
      8 C07          7.5280    20.9730     8.5200 ca         1 R4Z      -0.089600
      9 C08          8.9670    21.3220     8.1470 c          1 R4Z       0.708600
     10 C11          6.6580    21.9880     8.9710 ca         1 R4Z      -0.064000
     11 C12          5.3420    21.7550     9.3430 ca         1 R4Z      -0.122300
     12 C14          4.3970    22.8530    11.4120 c3         1 R4Z      -0.086100
     13 O01          4.3570    17.3940     8.7910 o          1 R4Z      -0.552100
     14 O09          9.1970    22.5260     7.8690 o          1 R4Z      -0.715500
     15 O10          9.8040    20.3850     8.1530 o          1 R4Z      -0.715500
     16 H1           4.8740    23.8260     9.5450 hc         1 R4Z       0.036200
     17 H2           3.4690    22.7720     9.4680 hc         1 R4Z       0.036200
     18 H3           3.8070    20.2300     9.5160 ha         1 R4Z       0.105000
     19 H4           6.8050    16.3780     7.8220 ha         1 R4Z       0.193000
     20 H5           8.6110    18.3150     7.6580 ha         1 R4Z       0.228000
     21 H6           7.0530    22.9940     9.0270 ha         1 R4Z       0.131000
     22 H7           3.7600    23.6630    11.7740 hc         1 R4Z       0.028033
     23 H8           3.9840    21.9080    11.7720 hc         1 R4Z       0.028033
     24 H9           5.3890    22.9760    11.8510 hc         1 R4Z       0.028033
@<TRIPOS>BOND
     1     1    11 1   
     2     1    12 1   
     3     1    16 1   
     4     1    17 1   
     5     2     6 ar  
     6     2    11 ar  
     7     2    18 1   
     8     3     4 1   
     9     3     6 1   
    10     3    13 2   
    11     4     5 2   
    12     4    19 1   
    13     5     7 1   
    14     5    20 1   
    15     6     7 ar  
    16     7     8 ar  
    17     8     9 1   
    18     8    10 ar  
    19     9    14 1   
    20     9    15 1   
    21    10    11 ar  
    22    10    21 1   
    23    12    22 1   
    24    12    23 1   
    25    12    24 1   
@<TRIPOS>SUBSTRUCTURE
     1 R4Z         1 TEMP              0 ****  ****    0 ROOT
