@<TRIPOS>MOLECULE
R50
   51    54     1     0     0
SMALL
No Charge or Current Charge


@<TRIPOS>ATOM
      1 C13        -10.5930    -5.0020     0.6500 ca         1 R50      -0.046800
      2 C15        -12.1450    -7.1360     0.2600 c3         1 R50      -0.024900
      3 C20         -7.0790    -8.3930     3.1430 c3         1 R50      -0.086600
      4 C21         -5.3130    -8.0190     1.3290 c3         1 R50      -0.086600
      5 C24        -15.1460    -4.5230     0.6820 ca         1 R50      -0.112000
      6 C26        -17.1170    -4.1240    -0.8790 c6         1 R50       0.207100
      7 C01        -18.9020    -3.9560    -2.5690 c3         1 R50       0.151100
      8 C03        -16.7280    -2.8420    -2.9260 c6         1 R50       0.163800
      9 C04        -15.1950    -3.0380    -2.8620 c6         1 R50      -0.028100
     10 C05        -14.7040    -3.5280    -1.4970 ca         1 R50      -0.065300
     11 C06        -13.3330    -3.4720    -1.1830 ca         1 R50      -0.097000
     12 C07        -12.8480    -3.9440     0.0580 cp         1 R50      -0.033000
     13 C08        -11.3980    -3.8660     0.3870 cp         1 R50      -0.047000
     14 C09        -10.7480    -2.6050     0.4600 ca         1 R50       0.318900
     15 C11         -8.6990    -3.5390     1.0420 ca         1 R50       0.354900
     16 C12         -9.2590    -4.8310     0.9860 ca         1 R50      -0.140000
     17 C14        -10.8680    -6.4270     0.6230 cc         1 R50      -0.106400
     18 C16         -9.6650    -7.0090     0.9730 cd         1 R50      -0.118400
     19 C18         -7.2810    -6.3700     1.6130 c          1 R50       0.619100
     20 C19         -6.8030    -7.8450     1.7220 c3         1 R50      -0.133700
     21 C23        -15.6160    -4.0650    -0.5630 ca         1 R50      -0.070300
     22 C25        -13.7770    -4.4590     0.9900 ca         1 R50      -0.096000
     23 N02        -17.4440    -3.9950    -2.3250 n3         1 R50      -0.712600
     24 N10         -9.4380    -2.4330     0.7770 nb         1 R50      -0.656000
     25 N17         -8.6230    -6.0980     1.2120 n          1 R50      -0.095600
     26 O22         -6.5230    -5.4580     1.9250 o          1 R50      -0.542100
     27 H1         -12.6310    -6.6630    -0.6010 hc         1 R50       0.046033
     28 H2         -11.9500    -8.1810    -0.0050 hc         1 R50       0.046033
     29 H3         -12.8490    -7.1320     1.1000 hc         1 R50       0.046033
     30 H4          -6.7970    -9.4500     3.2150 hc         1 R50       0.047700
     31 H5          -6.5080    -7.8350     3.8950 hc         1 R50       0.047700
     32 H6          -8.1440    -8.3100     3.3940 hc         1 R50       0.047700
     33 H7          -5.0270    -9.0770     1.3530 hc         1 R50       0.047700
     34 H8          -5.1350    -7.6430     0.3140 hc         1 R50       0.047700
     35 H9          -4.6550    -7.4730     2.0170 hc         1 R50       0.047700
     36 H10        -15.8430    -4.9250     1.4140 ha         1 R50       0.111000
     37 H11        -17.6080    -3.3190    -0.3120 h1         1 R50       0.040700
     38 H12        -17.5190    -5.0720    -0.4910 h1         1 R50       0.040700
     39 H13        -19.3890    -4.8490    -2.1550 h1         1 R50       0.032367
     40 H14        -19.3540    -3.0690    -2.1040 h1         1 R50       0.032367
     41 H15        -19.1140    -3.9250    -3.6460 h1         1 R50       0.032367
     42 H16        -16.9940    -1.9150    -2.3940 h1         1 R50       0.035200
     43 H17        -17.0220    -2.7060    -3.9770 h1         1 R50       0.035200
     44 H18        -14.8980    -3.7700    -3.6250 hc         1 R50       0.056200
     45 H19        -14.6970    -2.0960    -3.1280 hc         1 R50       0.056200
     46 H20        -12.6320    -3.0670    -1.9100 ha         1 R50       0.116000
     47 H21        -11.3110    -1.6930     0.2650 h4         1 R50       0.022100
     48 H22         -7.6530    -3.3690     1.2880 h4         1 R50       0.049100
     49 H23         -9.4670    -8.0690     1.0810 h4         1 R50       0.217000
     50 H24         -7.4010    -8.4600     1.0440 hc         1 R50       0.063700
     51 H25        -13.4280    -4.8090     1.9590 ha         1 R50       0.118000
@<TRIPOS>BOND
     1     1    13 ar  
     2     1    16 ar  
     3     1    17 1   
     4     2    17 1   
     5     2    27 1   
     6     2    28 1   
     7     2    29 1   
     8     3    20 1   
     9     3    30 1   
    10     3    31 1   
    11     3    32 1   
    12     4    20 1   
    13     4    33 1   
    14     4    34 1   
    15     4    35 1   
    16     5    21 ar  
    17     5    22 ar  
    18     5    36 1   
    19     6    21 1   
    20     6    23 1   
    21     6    37 1   
    22     6    38 1   
    23     7    23 1   
    24     7    39 1   
    25     7    40 1   
    26     7    41 1   
    27     8     9 1   
    28     8    23 1   
    29     8    42 1   
    30     8    43 1   
    31     9    10 1   
    32     9    44 1   
    33     9    45 1   
    34    10    11 ar  
    35    10    21 ar  
    36    11    12 ar  
    37    11    46 1   
    38    12    13 1   
    39    12    22 ar  
    40    13    14 ar  
    41    14    24 ar  
    42    14    47 1   
    43    15    16 ar  
    44    15    24 ar  
    45    15    48 1   
    46    16    25 1   
    47    17    18 2   
    48    18    25 1   
    49    18    49 1   
    50    19    20 1   
    51    19    25 1   
    52    19    26 2   
    53    20    50 1   
    54    22    51 1   
@<TRIPOS>SUBSTRUCTURE
     1 R50         1 TEMP              0 ****  ****    0 ROOT
