@<TRIPOS>MOLECULE
R50
   51    54     1     0     0
SMALL
abcg2


@<TRIPOS>ATOM
      1 C13        -10.5790    -5.0880     0.5580 ca         1 R50      -0.046800
      2 C15        -12.0230    -7.2760     0.1460 c3         1 R50      -0.024900
      3 C20         -7.3320    -8.2310     3.1220 c3         1 R50      -0.086600
      4 C21         -5.3580    -7.9040     1.5730 c3         1 R50      -0.086600
      5 C24        -15.0840    -4.6220     0.6210 ca         1 R50      -0.112000
      6 C26        -17.0680    -4.1200    -0.8350 c6         1 R50       0.207100
      7 C01        -18.8420    -3.8400    -2.4170 c3         1 R50       0.151100
      8 C03        -16.7110    -2.7620    -2.7770 c6         1 R50       0.163800
      9 C04        -15.2100    -3.0150    -2.8160 c6         1 R50      -0.028100
     10 C05        -14.6960    -3.5580    -1.5060 ca         1 R50      -0.065300
     11 C06        -13.3330    -3.5300    -1.2120 ca         1 R50      -0.097000
     12 C07        -12.8300    -4.0480    -0.0210 cp         1 R50      -0.033000
     13 C08        -11.3840    -3.9710     0.2870 cp         1 R50      -0.047000
     14 C09        -10.7580    -2.7270     0.3480 ca         1 R50       0.318900
     15 C11         -8.7030    -3.5790     0.9520 ca         1 R50       0.354900
     16 C12         -9.2260    -4.8650     0.9060 ca         1 R50      -0.140000
     17 C14        -10.7890    -6.5220     0.5230 cc         1 R50      -0.106400
     18 C16         -9.6030    -7.0920     0.8580 cd         1 R50      -0.118400
     19 C18         -7.3070    -6.3330     1.5080 c          1 R50       0.619100
     20 C19         -6.8710    -7.7710     1.7260 c3         1 R50      -0.133700
     21 C23        -15.5830    -4.1100    -0.5780 ca         1 R50      -0.070300
     22 C25        -13.7280    -4.5950     0.9010 ca         1 R50      -0.096000
     23 N02        -17.4010    -3.9320    -2.2410 n3         1 R50      -0.712600
     24 N10         -9.4710    -2.5260     0.6650 nb         1 R50      -0.656000
     25 N17         -8.6270    -6.1180     1.1090 n          1 R50      -0.095600
     26 O22         -6.5680    -5.3860     1.7010 o          1 R50      -0.542100
     27 H1         -12.4370    -6.9070    -0.7940 hc         1 R50       0.046033
     28 H2         -11.7930    -8.3350     0.0300 hc         1 R50       0.046033
     29 H3         -12.8050    -7.1760     0.9000 hc         1 R50       0.046033
     30 H4          -7.0230    -9.2650     3.2830 hc         1 R50       0.047700
     31 H5          -6.8730    -7.6110     3.8940 hc         1 R50       0.047700
     32 H6          -8.4150    -8.1760     3.2350 hc         1 R50       0.047700
     33 H7          -5.0720    -8.9490     1.7010 hc         1 R50       0.047700
     34 H8          -5.0280    -7.5750     0.5860 hc         1 R50       0.047700
     35 H9          -4.8360    -7.3100     2.3230 hc         1 R50       0.047700
     36 H10        -15.7720    -5.0450     1.3440 ha         1 R50       0.111000
     37 H11        -17.5360    -3.3290    -0.2180 h1         1 R50       0.040700
     38 H12        -17.4950    -5.0670    -0.4970 h1         1 R50       0.040700
     39 H13        -19.3180    -4.7430    -2.0330 h1         1 R50       0.032367
     40 H14        -19.2740    -2.9740    -1.8860 h1         1 R50       0.032367
     41 H15        -19.0790    -3.7440    -3.4780 h1         1 R50       0.032367
     42 H16        -16.9280    -1.8660    -2.1680 h1         1 R50       0.035200
     43 H17        -17.0830    -2.5690    -3.7840 h1         1 R50       0.035200
     44 H18        -14.9910    -3.7340    -3.6120 hc         1 R50       0.056200
     45 H19        -14.6820    -2.0940    -3.0700 hc         1 R50       0.056200
     46 H20        -12.6460    -3.1030    -1.9350 ha         1 R50       0.116000
     47 H21        -11.3430    -1.8370     0.1410 h4         1 R50       0.022100
     48 H22         -7.6720    -3.3940     1.2110 h4         1 R50       0.049100
     49 H23         -9.3720    -8.1390     0.9280 h4         1 R50       0.217000
     50 H24         -7.3490    -8.4020     0.9760 hc         1 R50       0.063700
     51 H25        -13.3600    -4.9890     1.8400 ha         1 R50       0.118000
@<TRIPOS>BOND
     1     1    13 ar  
     2     1    16 ar  
     3     1    17 1   
     4     2    17 1   
     5     2    27 1   
     6     2    28 1   
     7     2    29 1   
     8     3    20 1   
     9     3    30 1   
    10     3    31 1   
    11     3    32 1   
    12     4    20 1   
    13     4    33 1   
    14     4    34 1   
    15     4    35 1   
    16     5    21 ar  
    17     5    22 ar  
    18     5    36 1   
    19     6    21 1   
    20     6    23 1   
    21     6    37 1   
    22     6    38 1   
    23     7    23 1   
    24     7    39 1   
    25     7    40 1   
    26     7    41 1   
    27     8     9 1   
    28     8    23 1   
    29     8    42 1   
    30     8    43 1   
    31     9    10 1   
    32     9    44 1   
    33     9    45 1   
    34    10    11 ar  
    35    10    21 ar  
    36    11    12 ar  
    37    11    46 1   
    38    12    13 1   
    39    12    22 ar  
    40    13    14 ar  
    41    14    24 ar  
    42    14    47 1   
    43    15    16 ar  
    44    15    24 ar  
    45    15    48 1   
    46    16    25 1   
    47    17    18 2   
    48    18    25 1   
    49    18    49 1   
    50    19    20 1   
    51    19    25 1   
    52    19    26 2   
    53    20    50 1   
    54    22    51 1   
@<TRIPOS>SUBSTRUCTURE
     1 R50         1 TEMP              0 ****  ****    0 ROOT
