@<TRIPOS>MOLECULE
R54
   65    69     1     0     0
SMALL
No Charge or Current Charge


@<TRIPOS>ATOM
      1 CBF        -20.6420    -9.2400    22.2880 c3         1 R54      -0.121100
      2 CBB        -20.9760    -7.7930    21.8360 c5         1 R54       0.173500
      3 CBC        -22.0470    -7.0860    22.7060 c5         1 R54      -0.074400
      4 CBD        -21.2330    -6.5970    23.9430 c5         1 R54      -0.080400
      5 CBE        -19.7580    -6.5600    23.4400 c5         1 R54       0.168800
      6 NBA        -19.8820    -6.7990    21.9810 n3         1 R54      -0.738600
      7 CAZ        -18.6040    -7.0660    21.2670 c3         1 R54       0.172800
      8 CAY        -18.7320    -7.1990    19.7300 c3         1 R54       0.161600
      9 OAX        -17.4120    -7.3900    19.1820 os         1 R54      -0.360100
     10 CAP        -17.1950    -7.5410    17.8280 ca         1 R54       0.140100
     11 CAQ        -18.2430    -7.5270    16.8830 ca         1 R54      -0.170500
     12 CAR        -17.9580    -7.6850    15.5150 ca         1 R54      -0.066000
     13 CAO        -15.8740    -7.7160    17.3910 ca         1 R54      -0.170500
     14 CAN        -15.5890    -7.8720    16.0240 ca         1 R54      -0.066000
     15 CAK        -16.6310    -7.8540    15.0730 ca         1 R54      -0.112300
     16 CAJ        -16.3410    -8.0110    13.5670 c6         1 R54       0.050900
     17 CAF        -15.2390    -9.0560    13.3160 ca         1 R54      -0.109300
     18 CAA        -15.5180   -10.4120    13.5800 ca         1 R54      -0.061000
     19 CAB        -14.5350   -11.3960    13.3810 ca         1 R54      -0.199000
     20 CAC        -13.2640   -11.0290    12.9170 ca         1 R54       0.134100
     21 OAM        -12.3080   -11.9780    12.7200 oh         1 R54      -0.541100
     22 CAD        -12.9740    -9.6830    12.6540 ca         1 R54      -0.147000
     23 CAE        -13.9500    -8.6870    12.8540 ca         1 R54      -0.035300
     24 CAG        -13.5940    -7.2300    12.5380 c6         1 R54      -0.034100
     25 CAH        -14.5890    -6.2040    13.1230 c6         1 R54      -0.069400
     26 CAI        -16.0490    -6.6520    12.8620 c6         1 R54      -0.008400
     27 CAL        -17.1060    -5.5790    13.1910 ca         1 R54      -0.073300
     28 CAS        -18.2640    -5.4880    12.3920 ca         1 R54      -0.104000
     29 CAT        -19.2560    -4.5330    12.6760 ca         1 R54      -0.111500
     30 CAU        -19.1020    -3.6620    13.7660 ca         1 R54      -0.112000
     31 CAV        -17.9560    -3.7480    14.5730 ca         1 R54      -0.111500
     32 CAW        -16.9630    -4.7010    14.2890 ca         1 R54      -0.104000
     33 H1         -21.5270    -9.8810    22.2040 hc         1 R54       0.038367
     34 H2         -19.8620    -9.6800    21.6570 hc         1 R54       0.038367
     35 H3         -20.3010    -9.2890    23.3290 hc         1 R54       0.038367
     36 H4         -21.3240    -7.8490    20.7950 h1         1 R54       0.060700
     37 H5         -22.4820    -6.2370    22.1670 hc         1 R54       0.049200
     38 H6         -22.8750    -7.7490    22.9810 hc         1 R54       0.049200
     39 H7         -21.3360    -7.2810    24.7920 hc         1 R54       0.045700
     40 H8         -21.5730    -5.6110    24.2810 hc         1 R54       0.045700
     41 H9         -19.1620    -7.3460    23.9260 h1         1 R54       0.036200
     42 H10        -19.2750    -5.5970    23.6560 h1         1 R54       0.036200
     43 H12        -18.1410    -7.9840    21.6560 h1         1 R54       0.044700
     44 H13        -17.9020    -6.2460    21.4710 h1         1 R54       0.044700
     45 H14        -19.1910    -6.2880    19.3260 h1         1 R54       0.041700
     46 H15        -19.3750    -8.0550    19.4880 h1         1 R54       0.041700
     47 H16        -19.2770    -7.3930    17.1860 ha         1 R54       0.121000
     48 H17        -18.7740    -7.6630    14.7960 ha         1 R54       0.116000
     49 H18        -15.0650    -7.7290    18.1160 ha         1 R54       0.121000
     50 H19        -14.5570    -8.0050    15.7090 ha         1 R54       0.116000
     51 H20        -17.2560    -8.4060    13.1020 hc         1 R54       0.056700
     52 H21        -16.5010   -10.7030    13.9450 ha         1 R54       0.115000
     53 H22        -14.7680   -12.4370    13.5900 ha         1 R54       0.114000
     54 H23        -12.6880   -12.8520    12.9530 ho         1 R54       0.461000
     55 H24        -11.9870    -9.4100    12.2920 ha         1 R54       0.127000
     56 H25        -13.5540    -7.1090    11.4460 hc         1 R54       0.051700
     57 H26        -12.5830    -7.0030    12.9040 hc         1 R54       0.051700
     58 H27        -14.4090    -5.2190    12.6720 hc         1 R54       0.049700
     59 H28        -14.4040    -6.0930    14.1990 hc         1 R54       0.049700
     60 H29        -16.1170    -6.8390    11.7810 hc         1 R54       0.054700
     61 H30        -18.4000    -6.1610    11.5480 ha         1 R54       0.112000
     62 H31        -20.1450    -4.4710    12.0520 ha         1 R54       0.111500
     63 H32        -19.8700    -2.9240    13.9880 ha         1 R54       0.111000
     64 H33        -17.8380    -3.0790    15.4230 ha         1 R54       0.111500
     65 H34        -16.0930    -4.7610    14.9380 ha         1 R54       0.112000
@<TRIPOS>BOND
     1     1     2 1   
     2     1    33 1   
     3     1    34 1   
     4     1    35 1   
     5     2     3 1   
     6     2     6 1   
     7     2    36 1   
     8     3     4 1   
     9     3    37 1   
    10     3    38 1   
    11     4     5 1   
    12     4    39 1   
    13     4    40 1   
    14     5     6 1   
    15     5    41 1   
    16     5    42 1   
    17     6     7 1   
    18     7     8 1   
    19     7    43 1   
    20     7    44 1   
    21     8     9 1   
    22     8    45 1   
    23     8    46 1   
    24     9    10 1   
    25    10    11 ar  
    26    10    13 ar  
    27    11    12 ar  
    28    11    47 1   
    29    12    15 ar  
    30    12    48 1   
    31    13    14 ar  
    32    13    49 1   
    33    14    15 ar  
    34    14    50 1   
    35    15    16 1   
    36    16    17 1   
    37    16    26 1   
    38    16    51 1   
    39    17    18 ar  
    40    17    23 ar  
    41    18    19 ar  
    42    18    52 1   
    43    19    20 ar  
    44    19    53 1   
    45    20    21 1   
    46    20    22 ar  
    47    21    54 1   
    48    22    23 ar  
    49    22    55 1   
    50    23    24 1   
    51    24    25 1   
    52    24    56 1   
    53    24    57 1   
    54    25    26 1   
    55    25    58 1   
    56    25    59 1   
    57    26    27 1   
    58    26    60 1   
    59    27    28 ar  
    60    27    32 ar  
    61    28    29 ar  
    62    28    61 1   
    63    29    30 ar  
    64    29    62 1   
    65    30    31 ar  
    66    30    63 1   
    67    31    32 ar  
    68    31    64 1   
    69    32    65 1   
@<TRIPOS>SUBSTRUCTURE
     1 R54         1 TEMP              0 ****  ****    0 ROOT
