@<TRIPOS>MOLECULE
R54
   65    69     1     0     0
SMALL
abcg2


@<TRIPOS>ATOM
      1 CBF        -20.5740    -9.1800    22.0390 c3         1 R54      -0.121100
      2 CBB        -20.9210    -7.7310    21.6780 c5         1 R54       0.173500
      3 CBC        -21.9830    -7.1380    22.6110 c5         1 R54      -0.074400
      4 CBD        -21.1750    -6.5710    23.8010 c5         1 R54      -0.080400
      5 CBE        -19.7260    -6.4840    23.2850 c5         1 R54       0.168800
      6 NBA        -19.8210    -6.7630    21.8490 n3         1 R54      -0.738600
      7 CAZ        -18.5450    -7.0750    21.2350 c3         1 R54       0.172800
      8 CAY        -18.6560    -7.1630    19.7250 c3         1 R54       0.161600
      9 OAX        -17.3340    -7.3530    19.2170 os         1 R54      -0.360100
     10 CAP        -17.1760    -7.5220    17.8740 ca         1 R54       0.140100
     11 CAQ        -18.2190    -7.4970    16.9490 ca         1 R54      -0.170500
     12 CAR        -17.9400    -7.6800    15.5970 ca         1 R54      -0.066000
     13 CAO        -15.8700    -7.7380    17.4270 ca         1 R54      -0.170500
     14 CAN        -15.6160    -7.9190    16.0770 ca         1 R54      -0.066000
     15 CAK        -16.6440    -7.8830    15.1310 ca         1 R54      -0.112300
     16 CAJ        -16.3820    -8.0150    13.6410 c6         1 R54       0.050900
     17 CAF        -15.3000    -9.0350    13.3440 ca         1 R54      -0.109300
     18 CAA        -15.5850   -10.3910    13.5190 ca         1 R54      -0.061000
     19 CAB        -14.6310   -11.3750    13.3130 ca         1 R54      -0.199000
     20 CAC        -13.3450   -10.9980    12.9250 ca         1 R54       0.134100
     21 OAM        -12.3460   -11.9110    12.7160 oh         1 R54      -0.541100
     22 CAD        -13.0450    -9.6560    12.7400 ca         1 R54      -0.147000
     23 CAE        -14.0110    -8.6680    12.9430 ca         1 R54      -0.035300
     24 CAG        -13.6420    -7.2250    12.6870 c6         1 R54      -0.034100
     25 CAH        -14.6310    -6.2250    13.2780 c6         1 R54      -0.069400
     26 CAI        -16.0630    -6.6500    12.9580 c6         1 R54      -0.008400
     27 CAL        -17.1130    -5.6110    13.2680 ca         1 R54      -0.073300
     28 CAS        -18.2750    -5.5570    12.4970 ca         1 R54      -0.104000
     29 CAT        -19.2920    -4.6540    12.7870 ca         1 R54      -0.111500
     30 CAU        -19.1600    -3.7790    13.8620 ca         1 R54      -0.112000
     31 CAV        -18.0030    -3.8160    14.6350 ca         1 R54      -0.111500
     32 CAW        -16.9920    -4.7240    14.3400 ca         1 R54      -0.104000
     33 H1         -21.4530    -9.8130    21.9000 hc         1 R54       0.038367
     34 H2         -19.7770    -9.5750    21.4070 hc         1 R54       0.038367
     35 H3         -20.2570    -9.2710    23.0800 hc         1 R54       0.038367
     36 H4         -21.2580    -7.7020    20.6390 h1         1 R54       0.060700
     37 H5         -22.5100    -6.3340    22.0960 hc         1 R54       0.049200
     38 H6         -22.7210    -7.8800    22.9160 hc         1 R54       0.049200
     39 H7         -21.2330    -7.2270    24.6690 hc         1 R54       0.045700
     40 H8         -21.5540    -5.5960    24.1050 hc         1 R54       0.045700
     41 H9         -19.0900    -7.2210    23.7980 h1         1 R54       0.036200
     42 H10        -19.2720    -5.5030    23.4430 h1         1 R54       0.036200
     43 H12        -18.1040    -8.0090    21.6190 h1         1 R54       0.044700
     44 H13        -17.8470    -6.2710    21.4830 h1         1 R54       0.044700
     45 H14        -19.0870    -6.2410    19.3210 h1         1 R54       0.041700
     46 H15        -19.2870    -8.0020    19.4210 h1         1 R54       0.041700
     47 H16        -19.2400    -7.3390    17.2640 ha         1 R54       0.121000
     48 H17        -18.7590    -7.6500    14.8890 ha         1 R54       0.116000
     49 H18        -15.0670    -7.7700    18.1520 ha         1 R54       0.121000
     50 H19        -14.5980    -8.1040    15.7590 ha         1 R54       0.116000
     51 H20        -17.3110    -8.3750    13.1920 hc         1 R54       0.056700
     52 H21        -16.5820   -10.6810    13.8330 ha         1 R54       0.115000
     53 H22        -14.8720   -12.4220    13.4530 ha         1 R54       0.114000
     54 H23        -12.6750   -12.8020    12.8910 ho         1 R54       0.461000
     55 H24        -12.0420    -9.3790    12.4360 ha         1 R54       0.127000
     56 H25        -13.5930    -7.0740    11.6020 hc         1 R54       0.051700
     57 H26        -12.6350    -7.0350    13.0640 hc         1 R54       0.051700
     58 H27        -14.4370    -5.2300    12.8720 hc         1 R54       0.049700
     59 H28        -14.4910    -6.1570    14.3590 hc         1 R54       0.049700
     60 H29        -16.1130    -6.8430    11.8810 hc         1 R54       0.054700
     61 H30        -18.3850    -6.2370    11.6590 ha         1 R54       0.112000
     62 H31        -20.1850    -4.6310    12.1750 ha         1 R54       0.111500
     63 H32        -19.9480    -3.0740    14.0930 ha         1 R54       0.111000
     64 H33        -17.8890    -3.1410    15.4740 ha         1 R54       0.111500
     65 H34        -16.1070    -4.7490    14.9620 ha         1 R54       0.112000
@<TRIPOS>BOND
     1     1     2 1   
     2     1    33 1   
     3     1    34 1   
     4     1    35 1   
     5     2     3 1   
     6     2     6 1   
     7     2    36 1   
     8     3     4 1   
     9     3    37 1   
    10     3    38 1   
    11     4     5 1   
    12     4    39 1   
    13     4    40 1   
    14     5     6 1   
    15     5    41 1   
    16     5    42 1   
    17     6     7 1   
    18     7     8 1   
    19     7    43 1   
    20     7    44 1   
    21     8     9 1   
    22     8    45 1   
    23     8    46 1   
    24     9    10 1   
    25    10    11 ar  
    26    10    13 ar  
    27    11    12 ar  
    28    11    47 1   
    29    12    15 ar  
    30    12    48 1   
    31    13    14 ar  
    32    13    49 1   
    33    14    15 ar  
    34    14    50 1   
    35    15    16 1   
    36    16    17 1   
    37    16    26 1   
    38    16    51 1   
    39    17    18 ar  
    40    17    23 ar  
    41    18    19 ar  
    42    18    52 1   
    43    19    20 ar  
    44    19    53 1   
    45    20    21 1   
    46    20    22 ar  
    47    21    54 1   
    48    22    23 ar  
    49    22    55 1   
    50    23    24 1   
    51    24    25 1   
    52    24    56 1   
    53    24    57 1   
    54    25    26 1   
    55    25    58 1   
    56    25    59 1   
    57    26    27 1   
    58    26    60 1   
    59    27    28 ar  
    60    27    32 ar  
    61    28    29 ar  
    62    28    61 1   
    63    29    30 ar  
    64    29    62 1   
    65    30    31 ar  
    66    30    63 1   
    67    31    32 ar  
    68    31    64 1   
    69    32    65 1   
@<TRIPOS>SUBSTRUCTURE
     1 R54         1 TEMP              0 ****  ****    0 ROOT
