@<TRIPOS>MOLECULE
R55
   81    85     1     0     0
SMALL
No Charge or Current Charge


@<TRIPOS>ATOM
      1 O22          1.9330     1.2630     1.9100 o          1 R55      -0.612100
      2 C21          2.0850     1.5040     0.7210 c          1 R55       0.611700
      3 C14          0.9170     1.5500    -0.2410 ca         1 R55      -0.118600
      4 C13         -0.4060     1.4380     0.2440 ca         1 R55      -0.129000
      5 C12         -1.4840     1.4390    -0.6560 ca         1 R55       0.329400
      6 N11         -1.3270     1.5360    -1.9950 nb         1 R55      -0.650000
      7 C16         -0.0660     1.6360    -2.4720 ca         1 R55       0.329400
      8 C15          1.0720     1.6490    -1.6450 ca         1 R55      -0.129000
      9 N23          3.3400     1.6890     0.1790 ns         1 R55      -0.489900
     10 C31          4.6040     1.3470     0.8650 c3         1 R55       0.087700
     11 C32          5.6700     2.4520     0.6140 c3         1 R55       0.166800
     12 N33          7.0620     2.0880     0.9790 n7         1 R55      -0.885400
     13 C34          7.2750     1.3660     2.2490 c3         1 R55       0.169800
     14 C35          7.2400    -0.1600     2.0060 c3         1 R55      -0.068400
     15 C36          5.8490    -0.7640     1.7010 c3         1 R55      -0.081400
     16 C37          5.0800    -0.1070     0.5280 c3         1 R55       0.105700
     17 N41          3.9490    -0.9700     0.1430 ns         1 R55      -0.495900
     18 C42          3.5500    -1.1970    -1.1570 c          1 R55       0.609700
     19 O43          4.2650    -0.9000    -2.1040 o          1 R55      -0.617100
     20 C51          2.1580    -1.7650    -1.3500 ca         1 R55      -0.139600
     21 C52          1.7460    -2.1690    -2.6390 ca         1 R55      -0.089000
     22 C53          0.4480    -2.6580    -2.8620 ca         1 R55      -0.071000
     23 C56          1.2280    -1.8590    -0.2870 ca         1 R55      -0.089000
     24 C55         -0.0760    -2.3330    -0.5140 ca         1 R55      -0.071000
     25 C54         -0.4820    -2.7380    -1.8050 ca         1 R55      -0.129600
     26 C61         -1.8820    -3.2520    -2.0580 c          1 R55       0.607300
     27 O62         -2.1740    -3.8420    -3.0930 o          1 R55      -0.514100
     28 C71         -2.9210    -2.9800    -1.0150 ca         1 R55      -0.179600
     29 C72         -3.3750    -4.0000    -0.1620 ca         1 R55       0.142100
     30 O99         -2.8780    -5.2630    -0.2700 oh         1 R55      -0.527100
     31 C73         -4.3310    -3.7120     0.8260 ca         1 R55      -0.190000
     32 C74         -4.8340    -2.4040     0.9630 ca         1 R55      -0.106000
     33 C75         -4.3900    -1.3720     0.1110 ca         1 R55       0.240000
     34 C76         -3.4320    -1.6730    -0.8740 ca         1 R55      -0.061000
     35 N91         -4.8880    -0.0530     0.2290 nh         1 R55      -0.775400
     36 C92         -5.2710     0.5020     1.5560 c6         1 R55       0.193300
     37 C93         -5.1310     2.0460     1.5810 c6         1 R55      -0.071400
     38 C94         -5.9290     2.7430     0.4380 c6         1 R55      -0.047000
     39 C97         -7.4700     2.6060     0.6610 c3         1 R55      -0.084100
     40 C98         -5.6090     4.2680     0.4270 c3         1 R55      -0.084100
     41 C95         -5.4970     2.1030    -0.9150 c6         1 R55      -0.071400
     42 C96         -5.6190     0.5570    -0.9180 c6         1 R55       0.193300
     43 H13         -0.6070     1.3460     1.3070 ha         1 R55       0.139500
     44 H12         -2.5040     1.3530    -0.2900 h4         1 R55       0.024100
     45 H16          0.0370     1.7060    -3.5540 h4         1 R55       0.024100
     46 H15          2.0480     1.7190    -2.1150 ha         1 R55       0.139500
     47 H23          3.3810     1.9000    -0.8090 hn         1 R55       0.327500
     48 H31          4.3970     1.3660     1.9430 h1         1 R55       0.074700
     49 H321         5.3590     3.3440     1.1760 h1         1 R55       0.036700
     50 H322         5.6460     2.7260    -0.4500 h1         1 R55       0.036700
     51 H33          7.6080     2.9600     1.0080 hn         1 R55       0.424000
     52 H341         6.5460     1.6570     3.0170 h1         1 R55       0.032200
     53 H342         8.2730     1.6110     2.6360 h1         1 R55       0.032200
     54 H351         7.6400    -0.6580     2.8980 hc         1 R55       0.047700
     55 H352         7.9270    -0.4060     1.1870 hc         1 R55       0.047700
     56 H361         5.2310    -0.7230     2.6070 hc         1 R55       0.045200
     57 H362         5.9910    -1.8290     1.4770 hc         1 R55       0.045200
     58 H37          5.7660    -0.0470    -0.3290 h1         1 R55       0.099700
     59 H41          3.3140    -1.2680     0.8700 hn         1 R55       0.322500
     60 H52          2.4340    -2.1040    -3.4790 ha         1 R55       0.130500
     61 H53          0.1630    -2.9620    -3.8670 ha         1 R55       0.129500
     62 H56          1.4880    -1.5480     0.7210 ha         1 R55       0.130500
     63 H55         -0.7640    -2.3860     0.3270 ha         1 R55       0.129500
     64 H99         -3.3170    -5.8290     0.4010 ho         1 R55       0.466000
     65 H73         -4.6870    -4.4930     1.4930 ha         1 R55       0.114000
     66 H74         -5.5800    -2.2000     1.7260 ha         1 R55       0.116000
     67 H76         -3.0780    -0.8830    -1.5310 ha         1 R55       0.134000
     68 H921        -4.6230     0.0840     2.3400 h1         1 R55       0.036450
     69 H922        -6.3040     0.2170     1.8020 h1         1 R55       0.036450
     70 H931        -4.0660     2.3010     1.4970 hc         1 R55       0.049200
     71 H932        -5.4570     2.4250     2.5590 hc         1 R55       0.049200
     72 H971        -8.0330     3.1060    -0.1370 hc         1 R55       0.034033
     73 H972        -7.7990     1.5610     0.6790 hc         1 R55       0.034033
     74 H973        -7.7760     3.0580     1.6120 hc         1 R55       0.034033
     75 H981        -5.8920     4.7440     1.3730 hc         1 R55       0.034033
     76 H982        -4.5390     4.4510     0.2750 hc         1 R55       0.034033
     77 H983        -6.1470     4.7840    -0.3780 hc         1 R55       0.034033
     78 H951        -6.0960     2.5160    -1.7380 hc         1 R55       0.049200
     79 H952        -4.4560     2.3740    -1.1370 hc         1 R55       0.049200
     80 H961        -5.2210     0.1800    -1.8710 h1         1 R55       0.036450
     81 H962        -6.6790     0.2700    -0.8780 h1         1 R55       0.036450
@<TRIPOS>BOND
     1     1     2 2   
     2     2     3 1   
     3     2     9 1   
     4     3     4 ar  
     5     3     8 ar  
     6     4     5 ar  
     7     4    43 1   
     8     5     6 ar  
     9     5    44 1   
    10     6     7 ar  
    11     7     8 ar  
    12     7    45 1   
    13     8    46 1   
    14     9    10 1   
    15     9    47 1   
    16    10    11 1   
    17    10    16 1   
    18    10    48 1   
    19    11    12 1   
    20    11    49 1   
    21    11    50 1   
    22    12    13 1   
    23    12    51 1   
    24    13    14 1   
    25    13    52 1   
    26    13    53 1   
    27    14    15 1   
    28    14    54 1   
    29    14    55 1   
    30    15    16 1   
    31    15    56 1   
    32    15    57 1   
    33    16    17 1   
    34    16    58 1   
    35    17    18 1   
    36    17    59 1   
    37    18    19 2   
    38    18    20 1   
    39    20    21 ar  
    40    20    23 ar  
    41    21    22 ar  
    42    21    60 1   
    43    22    25 ar  
    44    22    61 1   
    45    23    24 ar  
    46    23    62 1   
    47    24    25 ar  
    48    24    63 1   
    49    25    26 1   
    50    26    27 2   
    51    26    28 1   
    52    28    29 ar  
    53    28    34 ar  
    54    29    30 1   
    55    29    31 ar  
    56    30    64 1   
    57    31    32 ar  
    58    31    65 1   
    59    32    33 ar  
    60    32    66 1   
    61    33    34 ar  
    62    33    35 1   
    63    34    67 1   
    64    35    36 1   
    65    35    42 1   
    66    36    37 1   
    67    36    68 1   
    68    36    69 1   
    69    37    38 1   
    70    37    70 1   
    71    37    71 1   
    72    38    39 1   
    73    38    40 1   
    74    38    41 1   
    75    39    72 1   
    76    39    73 1   
    77    39    74 1   
    78    40    75 1   
    79    40    76 1   
    80    40    77 1   
    81    41    42 1   
    82    41    78 1   
    83    41    79 1   
    84    42    80 1   
    85    42    81 1   
@<TRIPOS>SUBSTRUCTURE
     1 R55         1 TEMP              0 ****  ****    0 ROOT
