@<TRIPOS>MOLECULE
R55
   81    85     1     0     0
SMALL
abcg2


@<TRIPOS>ATOM
      1 O22          3.3990     1.8630     1.3090 o          1 R55      -0.612100
      2 C21          3.7310     1.8510     0.1330 c          1 R55       0.611700
      3 C14          2.7990     2.3770    -0.9170 ca         1 R55      -0.118600
      4 C13          1.8970     3.3760    -0.5710 ca         1 R55      -0.129000
      5 C12          1.0050     3.8300    -1.5280 ca         1 R55       0.329400
      6 N11          0.9450     3.3440    -2.7630 nb         1 R55      -0.650000
      7 C16          1.7960     2.3780    -3.0840 ca         1 R55       0.329400
      8 C15          2.7420     1.8660    -2.2080 ca         1 R55      -0.129000
      9 N23          4.9110     1.3850    -0.3050 ns         1 R55      -0.489900
     10 C31          5.8490     0.6900     0.5440 c3         1 R55       0.087700
     11 C32          7.2640     1.0810     0.1110 c3         1 R55       0.166800
     12 N33          8.2710     0.1600     0.5830 n7         1 R55      -0.885400
     13 C34          8.2470    -0.1450     2.0060 c3         1 R55       0.169800
     14 C35          7.4880    -1.4400     2.2680 c3         1 R55      -0.068400
     15 C36          5.9960    -1.4170     1.9500 c3         1 R55      -0.081400
     16 C37          5.6190    -0.8530     0.5780 c3         1 R55       0.105700
     17 N41          4.2330    -1.1760     0.3150 ns         1 R55      -0.495900
     18 C42          3.7410    -1.3290    -0.9240 c          1 R55       0.609700
     19 O43          4.4480    -1.3650    -1.9230 o          1 R55      -0.617100
     20 C51          2.2530    -1.4480    -1.0430 ca         1 R55      -0.139600
     21 C52          1.7360    -2.0800    -2.1720 ca         1 R55      -0.089000
     22 C53          0.3690    -2.1680    -2.3610 ca         1 R55      -0.071000
     23 C56          1.3770    -0.8890    -0.1170 ca         1 R55      -0.089000
     24 C55          0.0080    -0.9910    -0.2980 ca         1 R55      -0.071000
     25 C54         -0.5070    -1.6330    -1.4190 ca         1 R55      -0.129600
     26 C61         -1.9730    -1.6890    -1.6650 c          1 R55       0.607300
     27 O62         -2.4060    -1.7290    -2.7990 o          1 R55      -0.514100
     28 C71         -2.8990    -1.6320    -0.5020 ca         1 R55      -0.179600
     29 C72         -2.7500    -2.4860     0.5970 ca         1 R55       0.142100
     30 O99         -1.7540    -3.3930     0.5720 oh         1 R55      -0.527100
     31 C73         -3.6560    -2.3870     1.6420 ca         1 R55      -0.190000
     32 C74         -4.7000    -1.4740     1.5960 ca         1 R55      -0.106000
     33 C75         -4.8740    -0.6190     0.5040 ca         1 R55       0.240000
     34 C76         -3.9550    -0.7300    -0.5410 ca         1 R55      -0.061000
     35 N91         -5.8970     0.3380     0.4370 nh         1 R55      -0.775400
     36 C92         -6.6320     0.5880     1.6640 c6         1 R55       0.193300
     37 C93         -7.4680     1.8530     1.5480 c6         1 R55      -0.071400
     38 C94         -8.4310     1.8380     0.3570 c6         1 R55      -0.047000
     39 C97         -9.5460     0.8120     0.5650 c3         1 R55      -0.084100
     40 C98         -9.0580     3.2210     0.1900 c3         1 R55      -0.084100
     41 C95         -7.6080     1.5000    -0.8910 c6         1 R55      -0.071400
     42 C96         -6.7700     0.2430    -0.7300 c6         1 R55       0.193300
     43 H13          1.8880     3.8020     0.4230 ha         1 R55       0.139500
     44 H12          0.3030     4.6180    -1.2830 h4         1 R55       0.024100
     45 H16          1.7260     1.9820    -4.0910 h4         1 R55       0.024100
     46 H15          3.3840     1.0630    -2.5460 ha         1 R55       0.139500
     47 H23          5.1120     1.4230    -1.2930 hn         1 R55       0.327500
     48 H31          5.6740     1.0610     1.5560 h1         1 R55       0.074700
     49 H321         7.4290     2.1180     0.4400 h1         1 R55       0.036700
     50 H322         7.3120     1.0860    -0.9830 h1         1 R55       0.036700
     51 H33          9.1790     0.5060     0.3120 hn         1 R55       0.424000
     52 H341         7.8390     0.6780     2.6120 h1         1 R55       0.032200
     53 H342         9.2760    -0.2820     2.3420 h1         1 R55       0.032200
     54 H351         7.6060    -1.7200     3.3180 hc         1 R55       0.047700
     55 H352         7.9680    -2.2260     1.6790 hc         1 R55       0.047700
     56 H361         5.4660    -0.8380     2.7150 hc         1 R55       0.045200
     57 H362         5.6210    -2.4400     2.0220 hc         1 R55       0.045200
     58 H37          6.2210    -1.3240    -0.2010 h1         1 R55       0.099700
     59 H41          3.6040    -1.1940     1.1020 hn         1 R55       0.322500
     60 H52          2.4050    -2.5060    -2.9070 ha         1 R55       0.130500
     61 H53         -0.0170    -2.6640    -3.2420 ha         1 R55       0.129500
     62 H56          1.7400    -0.3420     0.7430 ha         1 R55       0.130500
     63 H55         -0.6540    -0.5370     0.4290 ha         1 R55       0.129500
     64 H99         -1.7420    -3.8980     1.3920 ho         1 R55       0.466000
     65 H73         -3.5680    -3.0450     2.5000 ha         1 R55       0.114000
     66 H74         -5.3850    -1.4540     2.4320 ha         1 R55       0.116000
     67 H76         -4.0330    -0.0690    -1.3950 ha         1 R55       0.134000
     68 H921        -5.9170     0.7160     2.4790 h1         1 R55       0.036450
     69 H922        -7.2720    -0.2650     1.9420 h1         1 R55       0.036450
     70 H931        -6.7920     2.7080     1.4460 hc         1 R55       0.049200
     71 H932        -8.0210     1.9930     2.4810 hc         1 R55       0.049200
     72 H971       -10.2290     0.8110    -0.2870 hc         1 R55       0.034033
     73 H972        -9.1690    -0.2050     0.6790 hc         1 R55       0.034033
     74 H973       -10.1290     1.0450     1.4580 hc         1 R55       0.034033
     75 H981        -9.6360     3.5030     1.0730 hc         1 R55       0.034033
     76 H982        -8.2920     3.9850     0.0360 hc         1 R55       0.034033
     77 H983        -9.7310     3.2470    -0.6700 hc         1 R55       0.034033
     78 H951        -8.2650     1.3820    -1.7580 hc         1 R55       0.049200
     79 H952        -6.9370     2.3370    -1.1120 hc         1 R55       0.049200
     80 H961        -6.1640     0.1110    -1.6260 h1         1 R55       0.036450
     81 H962        -7.4160    -0.6450    -0.6590 h1         1 R55       0.036450
@<TRIPOS>BOND
     1     1     2 2   
     2     2     3 1   
     3     2     9 1   
     4     3     4 ar  
     5     3     8 ar  
     6     4     5 ar  
     7     4    43 1   
     8     5     6 ar  
     9     5    44 1   
    10     6     7 ar  
    11     7     8 ar  
    12     7    45 1   
    13     8    46 1   
    14     9    10 1   
    15     9    47 1   
    16    10    11 1   
    17    10    16 1   
    18    10    48 1   
    19    11    12 1   
    20    11    49 1   
    21    11    50 1   
    22    12    13 1   
    23    12    51 1   
    24    13    14 1   
    25    13    52 1   
    26    13    53 1   
    27    14    15 1   
    28    14    54 1   
    29    14    55 1   
    30    15    16 1   
    31    15    56 1   
    32    15    57 1   
    33    16    17 1   
    34    16    58 1   
    35    17    18 1   
    36    17    59 1   
    37    18    19 2   
    38    18    20 1   
    39    20    21 ar  
    40    20    23 ar  
    41    21    22 ar  
    42    21    60 1   
    43    22    25 ar  
    44    22    61 1   
    45    23    24 ar  
    46    23    62 1   
    47    24    25 ar  
    48    24    63 1   
    49    25    26 1   
    50    26    27 2   
    51    26    28 1   
    52    28    29 ar  
    53    28    34 ar  
    54    29    30 1   
    55    29    31 ar  
    56    30    64 1   
    57    31    32 ar  
    58    31    65 1   
    59    32    33 ar  
    60    32    66 1   
    61    33    34 ar  
    62    33    35 1   
    63    34    67 1   
    64    35    36 1   
    65    35    42 1   
    66    36    37 1   
    67    36    68 1   
    68    36    69 1   
    69    37    38 1   
    70    37    70 1   
    71    37    71 1   
    72    38    39 1   
    73    38    40 1   
    74    38    41 1   
    75    39    72 1   
    76    39    73 1   
    77    39    74 1   
    78    40    75 1   
    79    40    76 1   
    80    40    77 1   
    81    41    42 1   
    82    41    78 1   
    83    41    79 1   
    84    42    80 1   
    85    42    81 1   
@<TRIPOS>SUBSTRUCTURE
     1 R55         1 TEMP              0 ****  ****    0 ROOT
