@<TRIPOS>MOLECULE
R56
   59    61     1     0     0
SMALL
No Charge or Current Charge


@<TRIPOS>ATOM
      1 C1          22.7090   -15.0830    26.1730 ca         1 R56      -0.109000
      2 C3          22.2890   -16.3460    26.6230 ca         1 R56      -0.112500
      3 C5          20.9200   -16.6050    26.8160 ca         1 R56      -0.096500
      4 C7          19.9640   -15.6040    26.5590 ca         1 R56      -0.065300
      5 C8          20.3910   -14.3380    26.1130 ca         1 R56      -0.096500
      6 C10         21.7590   -14.0790    25.9180 ca         1 R56      -0.112500
      7 C12         18.4790   -15.8870    26.7740 c3         1 R56      -0.257100
      8 S15         17.6210   -16.5740    25.3460 s6         1 R56       1.218100
      9 O16         18.3610   -17.7400    24.8600 o          1 R56      -0.538000
     10 O17         16.1860   -16.6540    25.6190 o          1 R56      -0.538000
     11 N18         17.7980   -15.3660    24.2120 n7         1 R56      -0.919300
     12 C20         17.2510   -15.5720    22.8300 c6         1 R56       0.162500
     13 C22         16.7140   -14.2120    22.2410 c          1 R56       0.574000
     14 O23         15.8390   -13.5950    22.8420 o          1 R56      -0.584000
     15 N24         17.2680   -13.6830    21.0500 n          1 R56      -0.397800
     16 C25         18.4300   -14.2940    20.3650 c5         1 R56       0.260700
     17 C27         19.2440   -15.2240    21.2790 c6         1 R56      -0.080400
     18 C30         18.3030   -16.2620    21.9190 c6         1 R56      -0.078400
     19 S33         19.3490   -12.8430    19.6990 ss         1 R56      -0.413000
     20 C34         17.7180   -12.0980    19.2670 c5         1 R56       0.054600
     21 C37         16.8660   -12.3260    20.5470 c5         1 R56       0.035700
     22 C39         15.3630   -12.2120    20.1620 c          1 R56       0.596100
     23 O40         14.6360   -13.1130    19.7630 o          1 R56      -0.578100
     24 N41         14.9280   -10.9180    20.3780 ns         1 R56      -0.495900
     25 C43         13.5150   -10.5340    20.4490 c3         1 R56       0.103000
     26 C46         13.1210   -10.0230    21.8560 c3         1 R56      -0.126400
     27 C49         13.6440   -10.8620    23.0480 c3         1 R56       0.244800
     28 N52         13.2190   -12.2650    22.9670 nu         1 R56      -0.943400
     29 C54         12.2980   -12.7470    23.7500 c2         1 R56       0.810100
     30 N55         11.2700   -12.6570    22.9800 nv         1 R56      -1.081200
     31 N58         12.5890   -13.8030    24.3170 n2         1 R56      -0.897100
     32 H1          23.7670   -14.8820    26.0230 ha         1 R56       0.114000
     33 H3          23.0230   -17.1240    26.8210 ha         1 R56       0.115500
     34 H5          20.6040   -17.5870    27.1630 ha         1 R56       0.121500
     35 H8          19.6630   -13.5560    25.9110 ha         1 R56       0.121500
     36 H10         22.0820   -13.1000    25.5700 ha         1 R56       0.115500
     37 H121        18.3430   -16.6200    27.5760 h1         1 R56       0.104700
     38 H122        17.9440   -14.9710    27.0440 h1         1 R56       0.104700
     39 HNI         17.2170   -14.6620    24.6690 hn         1 R56       0.521000
     40 H20         16.3590   -16.2170    22.8790 h1         1 R56       0.095700
     41 H25         18.0080   -14.8570    19.5210 h2         1 R56       0.091700
     42 H271        20.0260   -15.7260    20.6930 hc         1 R56       0.067200
     43 H272        19.7530   -14.6400    22.0580 hc         1 R56       0.067200
     44 H301        18.8890   -17.0050    22.4730 hc         1 R56       0.068200
     45 H302        17.7850   -16.8180    21.1260 hc         1 R56       0.068200
     46 H341        17.8190   -11.0350    19.0110 h1         1 R56       0.093200
     47 H342        17.2950   -12.6250    18.3990 h1         1 R56       0.093200
     48 H37         17.1020   -11.5700    21.3090 h1         1 R56       0.071700
     49 HN          15.6200   -10.2420    20.6800 hn         1 R56       0.310500
     50 H431        13.3180    -9.7520    19.7040 h1         1 R56       0.064700
     51 H432        12.8860   -11.3970    20.1970 h1         1 R56       0.064700
     52 H461        13.5070    -9.0030    21.9720 hc         1 R56       0.043700
     53 H462        12.0290    -9.9450    21.9130 hc         1 R56       0.043700
     54 H491        14.7420   -10.8160    23.0620 h1         1 R56       0.048700
     55 H492        13.2940   -10.4110    23.9880 h1         1 R56       0.048700
     56 HN2         14.0060   -12.9130    23.0170 hn         1 R56       0.531000
     57 HN51        10.9730   -13.5760    22.6970 hn         1 R56       0.449500
     58 HN52        11.5950   -12.1100    22.2000 hn         1 R56       0.449500
     59 HN8         11.7060   -14.2640    24.5590 hn         1 R56       0.372400
@<TRIPOS>BOND
     1     1     2 ar  
     2     1     6 ar  
     3     1    32 1   
     4     2     3 ar  
     5     2    33 1   
     6     3     4 ar  
     7     3    34 1   
     8     4     5 ar  
     9     4     7 1   
    10     5     6 ar  
    11     5    35 1   
    12     6    36 1   
    13     7     8 1   
    14     7    37 1   
    15     7    38 1   
    16     8     9 2   
    17     8    10 2   
    18     8    11 1   
    19    11    12 1   
    20    11    39 1   
    21    12    13 1   
    22    12    18 1   
    23    12    40 1   
    24    13    14 2   
    25    13    15 1   
    26    15    16 1   
    27    15    21 1   
    28    16    17 1   
    29    16    19 1   
    30    16    41 1   
    31    17    18 1   
    32    17    42 1   
    33    17    43 1   
    34    18    44 1   
    35    18    45 1   
    36    19    20 1   
    37    20    21 1   
    38    20    46 1   
    39    20    47 1   
    40    21    22 1   
    41    21    48 1   
    42    22    23 2   
    43    22    24 1   
    44    24    25 1   
    45    24    49 1   
    46    25    26 1   
    47    25    50 1   
    48    25    51 1   
    49    26    27 1   
    50    26    52 1   
    51    26    53 1   
    52    27    28 1   
    53    27    54 1   
    54    27    55 1   
    55    28    29 1   
    56    28    56 1   
    57    29    30 1   
    58    29    31 2   
    59    30    57 1   
    60    30    58 1   
    61    31    59 1   
@<TRIPOS>SUBSTRUCTURE
     1 R56         1 TEMP              0 ****  ****    0 ROOT
