@<TRIPOS>MOLECULE
R56
   59    61     1     0     0
SMALL
abcg2


@<TRIPOS>ATOM
      1 C1          22.3270   -15.9970    25.5150 ca         1 R56      -0.109000
      2 C3          21.5980   -17.1760    25.3810 ca         1 R56      -0.112500
      3 C5          20.2680   -17.2220    25.7790 ca         1 R56      -0.096500
      4 C7          19.6490   -16.0880    26.3060 ca         1 R56      -0.065300
      5 C8          20.3870   -14.9130    26.4420 ca         1 R56      -0.096500
      6 C10         21.7200   -14.8670    26.0520 ca         1 R56      -0.112500
      7 C12         18.2070   -16.1170    26.7100 c3         1 R56      -0.257100
      8 S15         17.0580   -16.0240    25.3270 s6         1 R56       1.218100
      9 O16         17.3140   -17.1390    24.4420 o          1 R56      -0.538000
     10 O17         15.7390   -15.8710    25.9040 o          1 R56      -0.538000
     11 N18         17.4410   -14.6380    24.5470 n7         1 R56      -0.919300
     12 C20         17.9400   -14.6250    23.1760 c6         1 R56       0.162500
     13 C22         17.2510   -13.4760    22.4490 c          1 R56       0.574000
     14 O23         16.3540   -12.8090    22.9680 o          1 R56      -0.584000
     15 N24         17.6840   -13.2840    21.1950 n          1 R56      -0.397800
     16 C25         18.8420   -14.0230    20.6770 c5         1 R56       0.260700
     17 C27         19.9630   -14.0540    21.7100 c6         1 R56      -0.080400
     18 C30         19.4720   -14.5240    23.0940 c6         1 R56      -0.078400
     19 S33         19.3320   -13.1100    19.1740 ss         1 R56      -0.413000
     20 C34         17.6150   -12.5780    18.9100 c5         1 R56       0.054600
     21 C37         17.0460   -12.3150    20.3070 c5         1 R56       0.035700
     22 C39         15.5230   -12.5120    20.2900 c          1 R56       0.596100
     23 O40         15.0390   -13.6380    20.2190 o          1 R56      -0.578100
     24 N41         14.8120   -11.3760    20.3000 ns         1 R56      -0.495900
     25 C43         13.3570   -11.3380    20.3380 c3         1 R56       0.103000
     26 C46         12.8310   -10.5150    21.5110 c3         1 R56      -0.126400
     27 C49         13.4050   -10.9300    22.8750 c3         1 R56       0.244800
     28 N52         13.4070   -12.3560    23.1370 nu         1 R56      -0.943400
     29 C54         12.3740   -13.1140    23.5930 c2         1 R56       0.810100
     30 N55         11.1920   -12.4410    23.8440 nv         1 R56      -1.081200
     31 N58         12.5620   -14.3790    23.8220 n2         1 R56      -0.897100
     32 H1          23.3640   -15.9620    25.2060 ha         1 R56       0.114000
     33 H3          22.0670   -18.0600    24.9680 ha         1 R56       0.115500
     34 H5          19.7020   -18.1390    25.6740 ha         1 R56       0.121500
     35 H8          19.9100   -14.0290    26.8480 ha         1 R56       0.121500
     36 H10         22.2810   -13.9480    26.1600 ha         1 R56       0.115500
     37 H121        17.9310   -17.0490    27.2080 h1         1 R56       0.104700
     38 H122        17.9450   -15.2790    27.3530 h1         1 R56       0.104700
     39 HNI         16.7600   -13.9020    24.7160 hn         1 R56       0.521000
     40 H20         17.6210   -15.5350    22.6600 h1         1 R56       0.095700
     41 H25         18.5360   -15.0340    20.3960 h2         1 R56       0.091700
     42 H271        20.7610   -14.6980    21.3420 hc         1 R56       0.067200
     43 H272        20.3650   -13.0430    21.7890 hc         1 R56       0.067200
     44 H301        19.8000   -13.8220    23.8580 hc         1 R56       0.068200
     45 H302        19.8900   -15.4950    23.3520 hc         1 R56       0.068200
     46 H341        17.6070   -11.6790    18.2990 h1         1 R56       0.093200
     47 H342        17.0550   -13.3670    18.4110 h1         1 R56       0.093200
     48 H37         17.2940   -11.3040    20.6340 h1         1 R56       0.071700
     49 HN          15.3100   -10.5020    20.3820 hn         1 R56       0.310500
     50 H431        12.9730   -10.9290    19.4010 h1         1 R56       0.064700
     51 H432        13.0210   -12.3690    20.4160 h1         1 R56       0.064700
     52 H461        13.0610    -9.4560    21.3610 hc         1 R56       0.043700
     53 H462        11.7410   -10.5990    21.5030 hc         1 R56       0.043700
     54 H491        14.4460   -10.6130    22.9310 h1         1 R56       0.048700
     55 H492        12.8740   -10.3960    23.6660 h1         1 R56       0.048700
     56 HN2         14.2880   -12.8360    23.0290 hn         1 R56       0.531000
     57 HN51        10.3810   -13.0320    23.9450 hn         1 R56       0.449500
     58 HN52        11.0030   -11.6060    23.3120 hn         1 R56       0.449500
     59 HN8         11.7000   -14.8090    24.1440 hn         1 R56       0.372400
@<TRIPOS>BOND
     1     1     2 ar  
     2     1     6 ar  
     3     1    32 1   
     4     2     3 ar  
     5     2    33 1   
     6     3     4 ar  
     7     3    34 1   
     8     4     5 ar  
     9     4     7 1   
    10     5     6 ar  
    11     5    35 1   
    12     6    36 1   
    13     7     8 1   
    14     7    37 1   
    15     7    38 1   
    16     8     9 2   
    17     8    10 2   
    18     8    11 1   
    19    11    12 1   
    20    11    39 1   
    21    12    13 1   
    22    12    18 1   
    23    12    40 1   
    24    13    14 2   
    25    13    15 1   
    26    15    16 1   
    27    15    21 1   
    28    16    17 1   
    29    16    19 1   
    30    16    41 1   
    31    17    18 1   
    32    17    42 1   
    33    17    43 1   
    34    18    44 1   
    35    18    45 1   
    36    19    20 1   
    37    20    21 1   
    38    20    46 1   
    39    20    47 1   
    40    21    22 1   
    41    21    48 1   
    42    22    23 2   
    43    22    24 1   
    44    24    25 1   
    45    24    49 1   
    46    25    26 1   
    47    25    50 1   
    48    25    51 1   
    49    26    27 1   
    50    26    52 1   
    51    26    53 1   
    52    27    28 1   
    53    27    54 1   
    54    27    55 1   
    55    28    29 1   
    56    28    56 1   
    57    29    30 1   
    58    29    31 2   
    59    30    57 1   
    60    30    58 1   
    61    31    59 1   
@<TRIPOS>SUBSTRUCTURE
     1 R56         1 TEMP              0 ****  ****    0 ROOT
