@<TRIPOS>MOLECULE
R57
   40    42     1     0     0
SMALL
abcg2


@<TRIPOS>ATOM
      1 FAU         -5.6540     0.3240     1.9980 f          1 R57      -0.174000
      2 CAU         -5.0500     0.6250     0.8380 ca         1 R57       0.136000
      3 CAV         -5.8600     0.9540    -0.2540 ca         1 R57       0.094100
      4 OAW         -7.1850     0.9340    -0.0450 os         1 R57      -0.328100
      5 CAX         -8.0320     1.2270    -1.1400 c3         1 R57       0.150900
      6 CAY         -5.2280     1.2700    -1.4490 ca         1 R57      -0.183000
      7 CAZ         -3.8380     1.2500    -1.5370 ca         1 R57      -0.078000
      8 CAT         -3.6800     0.6050     0.7580 ca         1 R57      -0.093000
      9 CAS         -3.0500     0.9230    -0.4480 ca         1 R57      -0.097300
     10 CAR         -1.5500     0.8980    -0.5460 c3         1 R57       0.287100
     11 NAQ         -1.0620    -0.4420    -0.3310 nu         1 R57      -0.931100
     12 CAP          0.2320    -0.7330    -0.1800 ca         1 R57       0.603900
     13 CAC          0.6440    -2.1210     0.0280 ca         1 R57       0.243500
     14 CAB         -0.3500    -3.2950     0.0460 c          1 R57       0.622500
     15 OAA          0.1250    -4.4130     0.2570 o          1 R57      -0.681000
     16 OBA         -1.5540    -3.0130    -0.1610 o          1 R57      -0.681000
     17 NAD          1.8930    -2.4050     0.2020 nb         1 R57      -0.603000
     18 CAE          2.8150    -1.4070     0.1810 ca         1 R57       0.181000
     19 CAF          4.1750    -1.7090     0.3710 ca         1 R57      -0.047000
     20 CAG          5.1160    -0.7150     0.3400 ca         1 R57      -0.131000
     21 NAO          1.1150     0.2430    -0.2170 nb         1 R57      -0.816000
     22 CAN          2.4120    -0.0750    -0.0370 ca         1 R57       0.280000
     23 CAM          3.3920     0.9390    -0.0700 ca         1 R57      -0.057000
     24 CAH          4.7130     0.6180     0.1140 ca         1 R57      -0.194300
     25 CAI          5.7740     1.6730     0.0900 c3         1 R57       0.352300
     26 FAJ          6.3980     1.7710     1.2730 f          1 R57      -0.124333
     27 FAK          6.7230     1.3950    -0.8160 f          1 R57      -0.124333
     28 FAL          5.3000     2.8870    -0.2030 f          1 R57      -0.124333
     29 H1          -9.0510     1.1390    -0.7730 h1         1 R57       0.037033
     30 H2          -7.8780     2.2420    -1.5140 h1         1 R57       0.037033
     31 H3          -7.8880     0.5210    -1.9620 h1         1 R57       0.037033
     32 H4          -5.8030     1.5310    -2.3270 ha         1 R57       0.111000
     33 H5          -3.3730     1.4990    -2.4830 ha         1 R57       0.115000
     34 H6          -3.1030     0.3430     1.6380 ha         1 R57       0.146000
     35 H7          -1.2400     1.2800    -1.5240 h1         1 R57       0.046200
     36 H8          -1.1100     1.5690     0.1980 h1         1 R57       0.046200
     37 H9          -1.6770    -1.2570    -0.3520 hn         1 R57       0.572000
     38 H11          4.4610    -2.7390     0.5400 ha         1 R57       0.128000
     39 H12          6.1600    -0.9590     0.4880 ha         1 R57       0.112000
     40 H13          3.0650     1.9550    -0.2450 ha         1 R57       0.129000
@<TRIPOS>BOND
     1     1     2 1   
     2     2     3 ar  
     3     2     8 ar  
     4     3     4 1   
     5     3     6 ar  
     6     4     5 1   
     7     5    29 1   
     8     5    30 1   
     9     5    31 1   
    10     6     7 ar  
    11     6    32 1   
    12     7     9 ar  
    13     7    33 1   
    14     8     9 ar  
    15     8    34 1   
    16     9    10 1   
    17    10    11 1   
    18    10    35 1   
    19    10    36 1   
    20    11    12 1   
    21    11    37 1   
    22    12    13 ar  
    23    12    21 ar  
    24    13    14 1   
    25    13    17 ar  
    26    14    15 1   
    27    14    16 1   
    28    17    18 ar  
    29    18    19 ar  
    30    18    22 ar  
    31    19    20 ar  
    32    19    38 1   
    33    20    24 ar  
    34    20    39 1   
    35    21    22 ar  
    36    22    23 ar  
    37    23    24 ar  
    38    23    40 1   
    39    24    25 1   
    40    25    26 1   
    41    25    27 1   
    42    25    28 1   
@<TRIPOS>SUBSTRUCTURE
     1 R57         1 TEMP              0 ****  ****    0 ROOT
