@<TRIPOS>MOLECULE
R57
   40    42     1     0     0
SMALL
No Charge or Current Charge


@<TRIPOS>ATOM
      1 FAU         -5.8080     1.1910     2.1860 f          1 R57      -0.174000
      2 CAU         -5.1650     1.1200     0.9960 ca         1 R57       0.136000
      3 CAV         -5.9010     1.0550    -0.2070 ca         1 R57       0.094100
      4 OAW         -7.2840     1.0660    -0.1440 os         1 R57      -0.328100
      5 CAX         -8.1090     1.0020    -1.3210 c3         1 R57       0.150900
      6 CAY         -5.2050     0.9790    -1.4350 ca         1 R57      -0.183000
      7 CAZ         -3.7980     0.9710    -1.4500 ca         1 R57      -0.078000
      8 CAT         -3.7610     1.1120     0.9770 ca         1 R57      -0.093000
      9 CAS         -3.0690     1.0390    -0.2470 ca         1 R57      -0.097300
     10 CAR         -1.5470     1.0280    -0.2670 c3         1 R57       0.287100
     11 NAQ         -1.0600    -0.3380    -0.0580 nu         1 R57      -0.931100
     12 CAP          0.2500    -0.7980    -0.0600 ca         1 R57       0.603900
     13 CAC          0.6430    -2.1790    -0.1370 ca         1 R57       0.243500
     14 CAB         -0.4280    -3.2840    -0.2330 c          1 R57       0.622500
     15 OAA         -0.0710    -4.4590    -0.2460 o          1 R57      -0.681000
     16 OBA         -1.6140    -2.9740    -0.3010 o          1 R57      -0.681000
     17 NAD          1.9790    -2.5250    -0.1250 nb         1 R57      -0.603000
     18 CAE          2.8770    -1.5080    -0.0430 ca         1 R57       0.181000
     19 CAF          4.2530    -1.8010    -0.0240 ca         1 R57      -0.047000
     20 CAG          5.2130    -0.7790     0.0600 ca         1 R57      -0.131000
     21 NAO          1.1420     0.2120     0.0210 nb         1 R57      -0.816000
     22 CAN          2.4580    -0.1370     0.0300 ca         1 R57       0.280000
     23 CAM          3.4370     0.8730     0.1130 ca         1 R57      -0.057000
     24 CAH          4.8160     0.5710     0.1220 ca         1 R57      -0.194300
     25 CAI          5.8500     1.6990     0.2250 c3         1 R57       0.352300
     26 FAJ          6.0340     2.0800     1.5080 f          1 R57      -0.124333
     27 FAK          7.0620     1.3400    -0.2590 f          1 R57      -0.124333
     28 FAL          5.4720     2.8000    -0.4640 f          1 R57      -0.124333
     29 H1          -9.1700     1.0240    -1.0430 h1         1 R57       0.037033
     30 H2          -7.9130     1.8560    -1.9820 h1         1 R57       0.037033
     31 H3          -7.9230     0.0740    -1.8780 h1         1 R57       0.037033
     32 H4          -5.7330     0.9260    -2.3820 ha         1 R57       0.111000
     33 H5          -3.2730     0.9100    -2.4020 ha         1 R57       0.115000
     34 H6          -3.2120     1.1600     1.9140 ha         1 R57       0.146000
     35 H7          -1.1900     1.4130    -1.2330 h1         1 R57       0.046200
     36 H8          -1.1670     1.6940     0.5200 h1         1 R57       0.046200
     37 H9          -1.7370    -1.1050    -0.1640 hn         1 R57       0.572000
     38 H11          4.5790    -2.8360    -0.0740 ha         1 R57       0.128000
     39 H12          6.2680    -1.0480     0.0780 ha         1 R57       0.112000
     40 H13          3.1090     1.9070     0.1740 ha         1 R57       0.129000
@<TRIPOS>BOND
     1     1     2 1   
     2     2     3 ar  
     3     2     8 ar  
     4     3     4 1   
     5     3     6 ar  
     6     4     5 1   
     7     5    29 1   
     8     5    30 1   
     9     5    31 1   
    10     6     7 ar  
    11     6    32 1   
    12     7     9 ar  
    13     7    33 1   
    14     8     9 ar  
    15     8    34 1   
    16     9    10 1   
    17    10    11 1   
    18    10    35 1   
    19    10    36 1   
    20    11    12 1   
    21    11    37 1   
    22    12    13 ar  
    23    12    21 ar  
    24    13    14 1   
    25    13    17 ar  
    26    14    15 1   
    27    14    16 1   
    28    17    18 ar  
    29    18    19 ar  
    30    18    22 ar  
    31    19    20 ar  
    32    19    38 1   
    33    20    24 ar  
    34    20    39 1   
    35    21    22 ar  
    36    22    23 ar  
    37    23    24 ar  
    38    23    40 1   
    39    24    25 1   
    40    25    26 1   
    41    25    27 1   
    42    25    28 1   
@<TRIPOS>SUBSTRUCTURE
     1 R57         1 TEMP              0 ****  ****    0 ROOT
