@<TRIPOS>MOLECULE
R58
   43    45     1     0     0
SMALL
No Charge or Current Charge


@<TRIPOS>ATOM
      1 FAL         -6.1000     2.3220    -1.0000 f          1 R58      -0.124667
      2 CAI         -5.9120     1.7250     0.1980 c3         1 R58       0.353300
      3 FAJ         -5.5280     2.6900     1.0650 f          1 R58      -0.124667
      4 FAK         -7.1230     1.2910     0.6160 f          1 R58      -0.124667
      5 CAH         -4.8810     0.5930     0.1000 ca         1 R58      -0.196300
      6 CAG         -5.2820    -0.7470    -0.0640 ca         1 R58      -0.132000
      7 CAF         -4.3240    -1.7700    -0.1610 ca         1 R58      -0.047000
      8 CAM         -3.5010     0.8870     0.1510 ca         1 R58      -0.057000
      9 CAN         -2.5240    -0.1240     0.0550 ca         1 R58       0.281000
     10 CAE         -2.9470    -1.4860    -0.1030 ca         1 R58       0.181000
     11 NAD         -2.0510    -2.5040    -0.2010 nb         1 R58      -0.604000
     12 CAC         -0.7140    -2.1670    -0.1420 ca         1 R58       0.243500
     13 CAB          0.3540    -3.2740    -0.2500 c          1 R58       0.621500
     14 OBA          1.5450    -2.9720    -0.2420 o          1 R58      -0.682500
     15 OAA         -0.0080    -4.4440    -0.3470 o          1 R58      -0.682500
     16 NAO         -1.2080     0.2160     0.1150 nb         1 R58      -0.816000
     17 CAP         -0.3170    -0.7940     0.0180 ca         1 R58       0.603900
     18 NAQ          0.9940    -0.3450     0.0930 nu         1 R58      -0.928100
     19 CAR          1.4970     1.0290     0.0510 c3         1 R58       0.289100
     20 CAS          3.0170     1.0140     0.1000 ca         1 R58      -0.127300
     21 CAT          3.7660     0.9880    -1.0920 ca         1 R58      -0.054000
     22 CAU          5.1720     0.9750    -1.0480 ca         1 R58      -0.178000
     23 CAZ          3.6870     1.0260     1.3390 ca         1 R58      -0.054000
     24 CAY          5.0920     1.0130     1.3820 ca         1 R58      -0.178000
     25 CAV          5.8410     0.9880     0.1950 ca         1 R58       0.140100
     26 OAW          7.2160     0.9770     0.3000 os         1 R58      -0.354100
     27 CAX          8.0720     0.9510    -0.8540 c3         1 R58       0.166600
     28 CAX3         9.5270     0.9450    -0.3560 c3         1 R58      -0.093100
     29 H1          -6.3370    -1.0070    -0.1210 ha         1 R58       0.111000
     30 H2          -4.6520    -2.7980    -0.2860 ha         1 R58       0.128000
     31 H3          -3.1710     1.9160     0.2650 ha         1 R58       0.129000
     32 H5           1.6760    -1.1080    -0.0120 hn         1 R58       0.570000
     33 H6           1.1650     1.5270    -0.8700 h1         1 R58       0.044200
     34 H7           1.1080     1.6050     0.9030 h1         1 R58       0.044200
     35 H8           3.2580     0.9760    -2.0550 ha         1 R58       0.117000
     36 H9           5.7210     0.9550    -1.9850 ha         1 R58       0.114000
     37 H10          3.1190     1.0430     2.2670 ha         1 R58       0.117000
     38 H11          5.6030     1.0220     2.3410 ha         1 R58       0.114000
     39 H12          7.8890     0.0500    -1.4550 h1         1 R58       0.031700
     40 H13          7.9060     1.8350    -1.4830 h1         1 R58       0.031700
     41 H14          9.7190     0.0620     0.2650 hc         1 R58       0.042367
     42 H15         10.2180     0.9260    -1.2060 hc         1 R58       0.042367
     43 H16          9.7350     1.8440     0.2370 hc         1 R58       0.042367
@<TRIPOS>BOND
     1     1     2 1   
     2     2     3 1   
     3     2     4 1   
     4     2     5 1   
     5     5     6 ar  
     6     5     8 ar  
     7     6     7 ar  
     8     6    29 1   
     9     7    10 ar  
    10     7    30 1   
    11     8     9 ar  
    12     8    31 1   
    13     9    10 ar  
    14     9    16 ar  
    15    10    11 ar  
    16    11    12 ar  
    17    12    13 1   
    18    12    17 ar  
    19    13    14 1   
    20    13    15 1   
    21    16    17 ar  
    22    17    18 1   
    23    18    19 1   
    24    18    32 1   
    25    19    20 1   
    26    19    33 1   
    27    19    34 1   
    28    20    21 ar  
    29    20    23 ar  
    30    21    22 ar  
    31    21    35 1   
    32    22    25 ar  
    33    22    36 1   
    34    23    24 ar  
    35    23    37 1   
    36    24    25 ar  
    37    24    38 1   
    38    25    26 1   
    39    26    27 1   
    40    27    28 1   
    41    27    39 1   
    42    27    40 1   
    43    28    41 1   
    44    28    42 1   
    45    28    43 1   
@<TRIPOS>SUBSTRUCTURE
     1 R58         1 TEMP              0 ****  ****    0 ROOT
