@<TRIPOS>MOLECULE
R58
   43    45     1     0     0
SMALL
abcg2


@<TRIPOS>ATOM
      1 FAL         -6.6580     1.5580    -1.0200 f          1 R58      -0.124667
      2 CAI         -5.8500     1.6690     0.0440 c3         1 R58       0.353300
      3 FAJ         -5.3610     2.9120     0.0350 f          1 R58      -0.124667
      4 FAK         -6.6330     1.5650     1.1280 f          1 R58      -0.124667
      5 CAH         -4.7850     0.6190     0.0360 ca         1 R58      -0.196300
      6 CAG         -5.1920    -0.7320     0.0540 ca         1 R58      -0.132000
      7 CAF         -4.2470    -1.7230     0.0470 ca         1 R58      -0.047000
      8 CAM         -3.4550     0.9580     0.0110 ca         1 R58      -0.057000
      9 CAN         -2.4720    -0.0530     0.0050 ca         1 R58       0.281000
     10 CAE         -2.8790    -1.4010     0.0230 ca         1 R58       0.181000
     11 NAD         -1.9530    -2.3950     0.0180 nb         1 R58      -0.604000
     12 CAC         -0.6960    -2.0930    -0.0050 ca         1 R58       0.243500
     13 CAB          0.3030    -3.2620    -0.0120 c          1 R58       0.621500
     14 OBA          1.5140    -2.9640    -0.1420 o          1 R58      -0.682500
     15 OAA         -0.1750    -4.3930     0.1070 o          1 R58      -0.682500
     16 NAO         -1.1670     0.2840    -0.0210 nb         1 R58      -0.816000
     17 CAP         -0.2810    -0.6900    -0.0280 ca         1 R58       0.603900
     18 NAQ          1.0180    -0.3840    -0.0500 nu         1 R58      -0.928100
     19 CAR          1.5130     0.9720    -0.0930 c3         1 R58       0.289100
     20 CAS          3.0120     0.9670     0.0020 ca         1 R58      -0.127300
     21 CAT          3.8050     1.3140    -1.0810 ca         1 R58      -0.054000
     22 CAU          5.1950     1.2850    -1.0100 ca         1 R58      -0.178000
     23 CAZ          3.6500     0.5800     1.1820 ca         1 R58      -0.054000
     24 CAY          5.0270     0.5410     1.2710 ca         1 R58      -0.178000
     25 CAV          5.8160     0.8910     0.1710 ca         1 R58       0.140100
     26 OAW          7.1490     0.8180     0.3450 os         1 R58      -0.354100
     27 CAX          8.0010     1.1190    -0.7520 c3         1 R58       0.166600
     28 CAX3         9.4290     0.9080    -0.3100 c3         1 R58      -0.093100
     29 H1          -6.2430    -0.9910     0.0730 ha         1 R58       0.111000
     30 H2          -4.5370    -2.7660     0.0610 ha         1 R58       0.128000
     31 H3          -3.1230     1.9880    -0.0040 ha         1 R58       0.129000
     32 H5           1.6400    -1.1890    -0.1180 hn         1 R58       0.570000
     33 H6           1.1970     1.4700    -1.0160 h1         1 R58       0.044200
     34 H7           1.0780     1.5470     0.7300 h1         1 R58       0.044200
     35 H8           3.3390     1.6190    -2.0100 ha         1 R58       0.117000
     36 H9           5.7650     1.5680    -1.8850 ha         1 R58       0.114000
     37 H10          3.0600     0.3030     2.0480 ha         1 R58       0.117000
     38 H11          5.5060     0.2360     2.1930 ha         1 R58       0.114000
     39 H12          7.7650     0.4690    -1.6010 h1         1 R58       0.031700
     40 H13          7.8490     2.1540    -1.0770 h1         1 R58       0.031700
     41 H14          9.6050    -0.1250    -0.0100 hc         1 R58       0.042367
     42 H15         10.0990     1.1350    -1.1380 hc         1 R58       0.042367
     43 H16          9.6920     1.5620     0.5210 hc         1 R58       0.042367
@<TRIPOS>BOND
     1     1     2 1   
     2     2     3 1   
     3     2     4 1   
     4     2     5 1   
     5     5     6 ar  
     6     5     8 ar  
     7     6     7 ar  
     8     6    29 1   
     9     7    10 ar  
    10     7    30 1   
    11     8     9 ar  
    12     8    31 1   
    13     9    10 ar  
    14     9    16 ar  
    15    10    11 ar  
    16    11    12 ar  
    17    12    13 1   
    18    12    17 ar  
    19    13    14 1   
    20    13    15 1   
    21    16    17 ar  
    22    17    18 1   
    23    18    19 1   
    24    18    32 1   
    25    19    20 1   
    26    19    33 1   
    27    19    34 1   
    28    20    21 ar  
    29    20    23 ar  
    30    21    22 ar  
    31    21    35 1   
    32    22    25 ar  
    33    22    36 1   
    34    23    24 ar  
    35    23    37 1   
    36    24    25 ar  
    37    24    38 1   
    38    25    26 1   
    39    26    27 1   
    40    27    28 1   
    41    27    39 1   
    42    27    40 1   
    43    28    41 1   
    44    28    42 1   
    45    28    43 1   
@<TRIPOS>SUBSTRUCTURE
     1 R58         1 TEMP              0 ****  ****    0 ROOT
