@<TRIPOS>MOLECULE
R59
   38    39     1     0     0
SMALL
abcg2


@<TRIPOS>ATOM
      1 C21         -3.5760    -0.4210     1.0840 c3         1 R59      -0.087100
      2 C14          1.9770     2.8450     1.5190 ca         1 R59      -0.160000
      3 C13          2.6350     3.5910     0.5260 ca         1 R59      -0.102000
      4 C12          3.1680     2.9810    -0.5930 ca         1 R59      -0.141000
      5 C16         -1.5850    -0.6730    -0.3570 c          1 R59       0.606100
      6 C15          1.8390     1.4750     1.4060 ca         1 R59      -0.048000
      7 C02          0.3910    -2.0430     0.0870 c3         1 R59      -0.043300
      8 C03         -0.1420    -3.3450     0.7470 c          1 R59       0.713000
      9 C06          1.8240    -1.7300     0.5380 c3         1 R59      -0.010200
     10 C07          2.4170    -0.5410    -0.1440 cc         1 R59      -0.097400
     11 C08          2.3660     0.8260     0.2830 ca         1 R59      -0.088800
     12 C09          3.0280     1.5970    -0.7010 ca         1 R59      -0.052200
     13 C11          3.0900    -0.5370    -1.3340 cd         1 R59      -0.177100
     14 C18         -2.5230     0.3440     0.2770 c3         1 R59      -0.138700
     15 C19         -3.1300     1.2300    -0.8040 c3         1 R59       0.115600
     16 N10          3.4510     0.7390    -1.6710 na         1 R59      -0.233700
     17 O04          0.5650    -4.3560     0.5620 o          1 R59      -0.722500
     18 O05         -1.2070    -3.2750     1.3830 o          1 R59      -0.722500
     19 S20         -4.1550     2.5260    -0.0270 sh         1 R59      -0.496800
     20 H1          -4.2210    -1.0000     0.4220 hc         1 R59       0.048033
     21 H2          -3.0990    -1.1130     1.7780 hc         1 R59       0.048033
     22 H3          -4.2050     0.2560     1.6620 hc         1 R59       0.048033
     23 H6           3.6780     3.5550    -1.3550 ha         1 R59       0.099000
     24 H7           1.3380     0.9160     2.1870 ha         1 R59       0.115000
     25 H8           0.4140    -2.2050    -0.9940 h1         1 R59       0.066700
     26 H9           1.8420    -1.5850     1.6240 hc         1 R59       0.055700
     27 H10          2.4300    -2.6140     0.3420 hc         1 R59       0.055700
     28 H11          3.3430    -1.3650    -1.9780 h4         1 R59       0.213000
     29 H12         -1.9510     0.9800     0.9610 hc         1 R59       0.055700
     30 H13         -2.3450     1.7140    -1.3830 h1         1 R59       0.067700
     31 H14         -3.7440     0.6380    -1.4820 h1         1 R59       0.067700
     32 H16          3.9700     0.9920    -2.4950 hn         1 R59       0.337000
     33 H18         -4.4070     3.2270    -1.1380 hs         1 R59       0.197800
     34 N01         -0.4650    -0.9110     0.3360 ns         1 R59      -0.441900
     35 H4           1.5730     3.3540     2.3840 ha         1 R59       0.101000
     36 H15         -0.4010    -0.4940     1.2520 hn         1 R59       0.291500
     37 O17         -1.8610    -1.2310    -1.4130 o          1 R59      -0.635100
     38 H5           2.7270     4.6630     0.6420 ha         1 R59       0.095000
@<TRIPOS>BOND
     1     1    14 1   
     2     1    20 1   
     3     1    21 1   
     4     1    22 1   
     5     2     3 ar  
     6     2     6 ar  
     7     2    35 1   
     8     3     4 ar  
     9     3    38 1   
    10     4    12 ar  
    11     4    23 1   
    12     5    14 1   
    13     5    34 1   
    14     5    37 2   
    15     6    11 ar  
    16     6    24 1   
    17     7     8 1   
    18     7     9 1   
    19     7    25 1   
    20     7    34 1   
    21     8    17 1   
    22     8    18 1   
    23     9    10 1   
    24     9    26 1   
    25     9    27 1   
    26    10    11 1   
    27    10    13 2   
    28    11    12 ar  
    29    12    16 1   
    30    13    16 1   
    31    13    28 1   
    32    14    15 1   
    33    14    29 1   
    34    15    19 1   
    35    15    30 1   
    36    15    31 1   
    37    16    32 1   
    38    19    33 1   
    39    34    36 1   
@<TRIPOS>SUBSTRUCTURE
     1 R59         1 TEMP              0 ****  ****    0 ROOT
