@<TRIPOS>MOLECULE
R59
   38    39     1     0     0
SMALL
No Charge or Current Charge


@<TRIPOS>ATOM
      1 C21         -3.6770    -0.0990     0.1670 c3         1 R59      -0.087100
      2 C14          1.3540     2.6880     1.4530 ca         1 R59      -0.160000
      3 C13          1.5760     3.5250     0.3340 ca         1 R59      -0.102000
      4 C12          1.9680     2.9700    -0.9030 ca         1 R59      -0.141000
      5 C16         -1.2560    -0.7960    -0.1830 c          1 R59       0.606100
      6 C15          1.5190     1.2910     1.3420 ca         1 R59      -0.048000
      7 C02          0.5670    -2.4410     0.4860 c3         1 R59      -0.043300
      8 C03          0.4490    -3.6540     1.4540 c          1 R59       0.713000
      9 C06          1.9880    -1.8230     0.5320 c3         1 R59      -0.010200
     10 C07          2.1440    -0.5850    -0.3140 cc         1 R59      -0.097400
     11 C08          1.9060     0.7720     0.0970 ca         1 R59      -0.088800
     12 C09          2.1260     1.5790    -0.9840 ca         1 R59      -0.052200
     13 C11          2.5140    -0.5170    -1.6540 cd         1 R59      -0.177100
     14 C18         -2.1910     0.2970     0.3610 c3         1 R59      -0.138700
     15 C19         -1.8400     1.6520    -0.2930 c3         1 R59       0.115600
     16 N10          2.5040     0.8330    -2.0840 na         1 R59      -0.233700
     17 O04          0.3450    -4.7710     0.9670 o          1 R59      -0.722500
     18 O05          0.3820    -3.4380     2.6570 o          1 R59      -0.722500
     19 S20         -2.7110     3.1030     0.4680 sh         1 R59      -0.496800
     20 H1          -3.9270    -0.1710    -0.8990 hc         1 R59       0.048033
     21 H2          -3.8790    -1.0720     0.6320 hc         1 R59       0.048033
     22 H3          -4.3450     0.6380     0.6270 hc         1 R59       0.048033
     23 H6           2.1430     3.6050    -1.7670 ha         1 R59       0.099000
     24 H7           1.3500     0.6400     2.1960 ha         1 R59       0.115000
     25 H8           0.4060    -2.8310    -0.5270 h1         1 R59       0.066700
     26 H9           2.2410    -1.5840     1.5720 hc         1 R59       0.055700
     27 H10          2.7130    -2.5810     0.2110 hc         1 R59       0.055700
     28 H11          2.7690    -1.3290    -2.3300 h4         1 R59       0.213000
     29 H12         -2.0140     0.3910     1.4390 hc         1 R59       0.055700
     30 H13         -0.7610     1.8260    -0.2070 h1         1 R59       0.067700
     31 H14         -2.0840     1.6190    -1.3630 h1         1 R59       0.067700
     32 H16          2.7260     1.1830    -3.0110 hn         1 R59       0.337000
     33 H18         -2.1250     4.0470    -0.3090 hs         1 R59       0.197800
     34 N01         -0.4890    -1.4370     0.7700 ns         1 R59      -0.441900
     35 H4           1.0520     3.1220     2.4030 ha         1 R59       0.101000
     36 H15         -0.6320    -1.1590     1.7340 hn         1 R59       0.291500
     37 O17         -1.2050    -1.0840    -1.3720 o          1 R59      -0.635100
     38 H5           1.4450     4.6000     0.4280 ha         1 R59       0.095000
@<TRIPOS>BOND
     1     1    14 1   
     2     1    20 1   
     3     1    21 1   
     4     1    22 1   
     5     2     3 ar  
     6     2     6 ar  
     7     2    35 1   
     8     3     4 ar  
     9     3    38 1   
    10     4    12 ar  
    11     4    23 1   
    12     5    14 1   
    13     5    34 1   
    14     5    37 2   
    15     6    11 ar  
    16     6    24 1   
    17     7     8 1   
    18     7     9 1   
    19     7    25 1   
    20     7    34 1   
    21     8    17 1   
    22     8    18 1   
    23     9    10 1   
    24     9    26 1   
    25     9    27 1   
    26    10    11 1   
    27    10    13 2   
    28    11    12 ar  
    29    12    16 1   
    30    13    16 1   
    31    13    28 1   
    32    14    15 1   
    33    14    29 1   
    34    15    19 1   
    35    15    30 1   
    36    15    31 1   
    37    16    32 1   
    38    19    33 1   
    39    34    36 1   
@<TRIPOS>SUBSTRUCTURE
     1 R59         1 TEMP              0 ****  ****    0 ROOT
