@<TRIPOS>MOLECULE
R5F
   47    49     1     0     0
SMALL
No Charge or Current Charge


@<TRIPOS>ATOM
      1 N1         101.0120    79.7640   112.0910 n3         1 R5F      -0.764600
      2 C4         101.3610    78.3210   112.2530 c3         1 R5F       0.185800
      3 C5         102.2570    78.0330   113.4790 c3         1 R5F      -0.012100
      4 C6         102.5420    76.5650   113.6600 cc         1 R5F      -0.198300
      5 C7         101.9960    75.7090   114.5840 cd         1 R5F      -0.137000
      6 C8         102.4830    74.3790   114.4830 cd         1 R5F      -0.131000
      7 C10         99.6240    80.1460   112.5520 c6         1 R5F       0.209500
      8 C13         97.3690    81.3890   114.0410 ca         1 R5F      -0.102300
      9 C15         99.3830    81.6830   112.4570 c6         1 R5F      -0.038100
     10 C17         96.4650    83.9840   113.3940 ca         1 R5F      -0.070000
     11 C1         101.0370    80.2860   108.2000 c3         1 R5F      -0.087100
     12 S1         103.6970    75.7210   112.6290 ss         1 R5F       0.175000
     13 C2         100.5460    79.7670   109.5660 c3         1 R5F      -0.116400
     14 C3         101.4050    80.2830   110.7470 c3         1 R5F       0.185800
     15 C9         103.4060    74.2080   113.4830 cc         1 R5F      -0.240000
     16 C11         99.3200    79.7000   114.0090 c6         1 R5F      -0.080400
     17 C12         97.8490    79.9740   114.3900 c6         1 R5F      -0.020100
     18 C14         98.0940    82.1850   113.1220 ca         1 R5F      -0.037300
     19 C16         97.6380    83.4800   112.8120 ca         1 R5F      -0.148000
     20 C18         95.7370    83.1920   114.2930 ca         1 R5F      -0.208000
     21 C19         96.1820    81.9010   114.6160 ca         1 R5F       0.138100
     22 H2         100.4510    77.7080   112.3150 h1         1 R5F       0.037200
     23 H3         101.9070    77.9560   111.3720 h1         1 R5F       0.037200
     24 H4         103.2000    78.5780   113.3570 hc         1 R5F       0.058700
     25 H5         101.7930    78.4320   114.3870 hc         1 R5F       0.058700
     26 H6         101.2610    76.0180   115.3210 ha         1 R5F       0.132000
     27 H7         102.1570    73.5740   115.1360 ha         1 R5F       0.132000
     28 H8          98.8850    79.6500   111.9050 h1         1 R5F       0.027700
     29 H9         100.2330    82.2090   112.9110 hc         1 R5F       0.057200
     30 H10         99.3600    81.9860   111.4030 hc         1 R5F       0.057200
     31 H11         96.1200    84.9860   113.1450 ha         1 R5F       0.112000
     32 H12        100.4020    79.9000   107.3940 hc         1 R5F       0.032367
     33 H13        101.0060    81.3810   108.1680 hc         1 R5F       0.032367
     34 H14        102.0670    79.9620   108.0100 hc         1 R5F       0.032367
     35 H15         94.6700    81.6770   115.7690 ho         1 R5F       0.463000
     36 H16         99.5040    80.0770   109.7010 hc         1 R5F       0.041700
     37 H17        100.5550    78.6710   109.5500 hc         1 R5F       0.041700
     38 H18        102.4510    80.0090   110.5500 h1         1 R5F       0.047700
     39 H19        101.3880    81.3810   110.7400 h1         1 R5F       0.047700
     40 H20        103.9350    73.3130   113.1830 h4         1 R5F       0.149000
     41 H21         99.4980    78.6270   114.1470 hc         1 R5F       0.049200
     42 H22         99.9890    80.2260   114.7040 hc         1 R5F       0.049200
     43 H23         97.7250    79.7860   115.4650 hc         1 R5F       0.055200
     44 H24         97.2030    79.2480   113.8780 hc         1 R5F       0.055200
     45 H25         98.1950    84.1000   112.1130 ha         1 R5F       0.113000
     46 H26         94.8260    83.5890   114.7360 ha         1 R5F       0.112000
     47 O1          95.4480    81.1500   115.4880 oh         1 R5F      -0.537100
@<TRIPOS>BOND
     1     1     2 1   
     2     1     7 1   
     3     1    14 1   
     4     2     3 1   
     5     2    22 1   
     6     2    23 1   
     7     3     4 1   
     8     3    24 1   
     9     3    25 1   
    10     4     5 2   
    11     4    12 1   
    12     5     6 1   
    13     5    26 1   
    14     6    15 2   
    15     6    27 1   
    16     7     9 1   
    17     7    16 1   
    18     7    28 1   
    19     8    17 1   
    20     8    18 ar  
    21     8    21 ar  
    22     9    18 1   
    23     9    29 1   
    24     9    30 1   
    25    10    19 ar  
    26    10    20 ar  
    27    10    31 1   
    28    11    13 1   
    29    11    32 1   
    30    11    33 1   
    31    11    34 1   
    32    12    15 1   
    33    13    14 1   
    34    13    36 1   
    35    13    37 1   
    36    14    38 1   
    37    14    39 1   
    38    15    40 1   
    39    16    17 1   
    40    16    41 1   
    41    16    42 1   
    42    17    43 1   
    43    17    44 1   
    44    18    19 ar  
    45    19    45 1   
    46    20    21 ar  
    47    20    46 1   
    48    21    47 1   
    49    35    47 1   
@<TRIPOS>SUBSTRUCTURE
     1 R5F         1 TEMP              0 ****  ****    0 ROOT
