@<TRIPOS>MOLECULE
R5F
   47    49     1     0     0
SMALL
abcg2


@<TRIPOS>ATOM
      1 N1         100.8800    79.6790   112.2250 n3         1 R5F      -0.764600
      2 C4         101.1390    78.2570   112.3830 c3         1 R5F       0.185800
      3 C5         102.2590    77.9950   113.3970 c3         1 R5F      -0.012100
      4 C6         102.5790    76.5440   113.5370 cc         1 R5F      -0.198300
      5 C7         102.1800    75.6760   114.5100 cd         1 R5F      -0.137000
      6 C8         102.6210    74.3410   114.2910 cd         1 R5F      -0.131000
      7 C10         99.5490    80.1010   112.6440 c6         1 R5F       0.209500
      8 C13         97.3870    81.4340   114.0230 ca         1 R5F      -0.102300
      9 C15         99.3420    81.5970   112.4230 c6         1 R5F      -0.038100
     10 C17         96.4010    83.8740   113.0810 ca         1 R5F      -0.070000
     11 C1         101.1690    80.3970   108.4470 c3         1 R5F      -0.087100
     12 S1         103.5010    75.7140   112.3370 ss         1 R5F       0.175000
     13 C2         100.5540    79.8100   109.7100 c3         1 R5F      -0.116400
     14 C3         101.3580    80.1930   110.9530 c3         1 R5F       0.185800
     15 C9         103.3490    74.2110   113.1500 cc         1 R5F      -0.240000
     16 C11         99.3330    79.8360   114.1320 c6         1 R5F      -0.080400
     17 C12         97.8920    80.1140   114.5370 c6         1 R5F      -0.020100
     18 C14         98.0620    82.1250   113.0190 ca         1 R5F      -0.037300
     19 C16         97.5620    83.3420   112.5520 ca         1 R5F      -0.148000
     20 C18         95.7130    83.1940   114.0760 ca         1 R5F      -0.208000
     21 C19         96.2010    81.9790   114.5380 ca         1 R5F       0.138100
     22 H2         100.2380    77.7220   112.6980 h1         1 R5F       0.037200
     23 H3         101.4180    77.8060   111.4250 h1         1 R5F       0.037200
     24 H4         103.1460    78.5590   113.0960 hc         1 R5F       0.058700
     25 H5         101.9570    78.3830   114.3720 hc         1 R5F       0.058700
     26 H6         101.5890    75.9840   115.3630 ha         1 R5F       0.132000
     27 H7         102.4080    73.5170   114.9580 ha         1 R5F       0.132000
     28 H8          98.7610    79.5610   112.0860 h1         1 R5F       0.027700
     29 H9         100.1920    82.1300   112.8650 hc         1 R5F       0.057200
     30 H10         99.3450    81.8480   111.3600 hc         1 R5F       0.057200
     31 H11         96.0180    84.8190   112.7170 ha         1 R5F       0.112000
     32 H12        100.5930    80.1320   107.5600 hc         1 R5F       0.032367
     33 H13        101.2120    81.4870   108.5000 hc         1 R5F       0.032367
     34 H14        102.1890    80.0360   108.2990 hc         1 R5F       0.032367
     35 H15         94.7780    81.7380   115.7930 ho         1 R5F       0.463000
     36 H16         99.5230    80.1600   109.8100 hc         1 R5F       0.041700
     37 H17        100.5000    78.7210   109.6190 hc         1 R5F       0.041700
     38 H18        102.3880    79.8420   110.8300 h1         1 R5F       0.047700
     39 H19        101.4340    81.2820   111.0060 h1         1 R5F       0.047700
     40 H20        103.8070    73.3210   112.7470 h4         1 R5F       0.149000
     41 H21         99.5720    78.8050   114.3980 hc         1 R5F       0.049200
     42 H22        100.0180    80.4750   114.7000 hc         1 R5F       0.049200
     43 H23         97.8110    80.0730   115.6260 hc         1 R5F       0.055200
     44 H24         97.2500    79.3090   114.1640 hc         1 R5F       0.055200
     45 H25         98.0930    83.8690   111.7680 ha         1 R5F       0.113000
     46 H26         94.7970    83.6050   114.4890 ha         1 R5F       0.112000
     47 O1          95.5650    81.2680   115.4940 oh         1 R5F      -0.537100
@<TRIPOS>BOND
     1     1     2 1   
     2     1     7 1   
     3     1    14 1   
     4     2     3 1   
     5     2    22 1   
     6     2    23 1   
     7     3     4 1   
     8     3    24 1   
     9     3    25 1   
    10     4     5 2   
    11     4    12 1   
    12     5     6 1   
    13     5    26 1   
    14     6    15 2   
    15     6    27 1   
    16     7     9 1   
    17     7    16 1   
    18     7    28 1   
    19     8    17 1   
    20     8    18 ar  
    21     8    21 ar  
    22     9    18 1   
    23     9    29 1   
    24     9    30 1   
    25    10    19 ar  
    26    10    20 ar  
    27    10    31 1   
    28    11    13 1   
    29    11    32 1   
    30    11    33 1   
    31    11    34 1   
    32    12    15 1   
    33    13    14 1   
    34    13    36 1   
    35    13    37 1   
    36    14    38 1   
    37    14    39 1   
    38    15    40 1   
    39    16    17 1   
    40    16    41 1   
    41    16    42 1   
    42    17    43 1   
    43    17    44 1   
    44    18    19 ar  
    45    19    45 1   
    46    20    21 ar  
    47    20    46 1   
    48    21    47 1   
    49    35    47 1   
@<TRIPOS>SUBSTRUCTURE
     1 R5F         1 TEMP              0 ****  ****    0 ROOT
