@<TRIPOS>MOLECULE
R5G
   39    41     1     0     0
SMALL
abcg2


@<TRIPOS>ATOM
      1 C10         27.6250    42.8720    35.0700 cc         1 R5G      -0.143100
      2 C13         28.4300    41.0940    36.1320 ca         1 R5G      -0.059200
      3 C15         29.4800    39.6810    37.7330 ca         1 R5G      -0.138600
      4 C20         29.7580    40.8080    38.5310 ca         1 R5G      -0.093000
      5 C21         29.3940    42.0740    38.1280 ca         1 R5G      -0.067000
      6 C22         24.8520    41.0370    33.1500 ca         1 R5G      -0.099500
      7 C04         22.9310    40.3050    34.4050 ca         1 R5G      -0.143600
      8 C05         23.7850    39.7980    35.3840 ca         1 R5G      -0.071500
      9 C06         25.1580    39.9100    35.2410 ca         1 R5G      -0.099500
     10 C07         25.7060    40.5300    34.1220 ca         1 R5G      -0.099300
     11 C11         28.1930    43.3590    36.2100 cd         1 R5G      -0.241200
     12 C12         28.7180    42.2360    36.9130 ca         1 R5G      -0.073800
     13 C14         28.8040    39.8140    36.5290 ca         1 R5G      -0.103000
     14 C16         29.9010    38.3470    38.2470 c          1 R5G       0.618700
     15 C23         23.4760    40.9360    33.2920 ca         1 R5G      -0.071500
     16 N02         20.9780    39.1530    35.1470 ns         1 R5G      -0.391400
     17 N09         27.7680    41.5130    35.0100 na         1 R5G      -0.090700
     18 N17         30.2700    37.4780    37.2890 ns         1 R5G      -0.396400
     19 O01         19.6610    39.0540    35.4660 oh         1 R5G      -0.413100
     20 O18         30.5620    36.1880    37.6020 oh         1 R5G      -0.413100
     21 O19         29.9300    38.0800    39.4380 o          1 R5G      -0.572100
     22 O24         20.7210    41.1170    34.0640 o          1 R5G      -0.569100
     23 H1          27.1220    43.4000    34.2740 h4         1 R5G       0.216000
     24 H2          30.2760    40.6730    39.4700 ha         1 R5G       0.133000
     25 H3          29.6260    42.9310    38.7470 ha         1 R5G       0.123000
     26 H4          25.2620    41.5220    32.2720 ha         1 R5G       0.122500
     27 H5          23.3920    39.3320    36.2780 ha         1 R5G       0.129000
     28 H6          25.8000    39.5130    36.0190 ha         1 R5G       0.122500
     29 H7          27.6850    39.7000    34.0210 h1         1 R5G       0.065700
     30 H8          27.4460    41.0990    33.0030 h1         1 R5G       0.065700
     31 H9          28.2350    44.3940    36.5080 ha         1 R5G       0.211000
     32 H10         28.5510    38.9480    35.9290 ha         1 R5G       0.113000
     33 H11         22.8280    41.3450    32.5280 ha         1 R5G       0.129000
     34 H12         21.5660    38.4170    35.5110 hn         1 R5G       0.342500
     35 H13         30.3570    37.7210    36.3130 hn         1 R5G       0.339500
     36 H14         19.2310    38.6150    34.7200 ho         1 R5G       0.441000
     37 H15         31.5060    36.1610    37.8090 ho         1 R5G       0.436000
     38 C08         27.1990    40.6740    33.9770 c3         1 R5G       0.123900
     39 C03         21.4440    40.2490    34.5240 c          1 R5G       0.617700
@<TRIPOS>BOND
     1     1    11 2   
     2     1    17 1   
     3     1    23 1   
     4     2    12 ar  
     5     2    13 ar  
     6     2    17 1   
     7     3     4 ar  
     8     3    13 ar  
     9     3    14 1   
    10     4     5 ar  
    11     4    24 1   
    12     5    12 ar  
    13     5    25 1   
    14     6    10 ar  
    15     6    15 ar  
    16     6    26 1   
    17     7     8 ar  
    18     7    15 ar  
    19     7    39 1   
    20     8     9 ar  
    21     8    27 1   
    22     9    10 ar  
    23     9    28 1   
    24    10    38 1   
    25    11    12 1   
    26    11    31 1   
    27    13    32 1   
    28    14    18 1   
    29    14    21 2   
    30    15    33 1   
    31    16    19 1   
    32    16    34 1   
    33    16    39 1   
    34    17    38 1   
    35    18    20 1   
    36    18    35 1   
    37    19    36 1   
    38    20    37 1   
    39    22    39 2   
    40    29    38 1   
    41    30    38 1   
@<TRIPOS>SUBSTRUCTURE
     1 R5G         1 TEMP              0 ****  ****    0 ROOT
