@<TRIPOS>MOLECULE
R5G
   39    41     1     0     0
SMALL
No Charge or Current Charge


@<TRIPOS>ATOM
      1 C10         27.8740    43.7240    35.6410 cc         1 R5G      -0.143100
      2 C13         28.3890    41.5540    36.2200 ca         1 R5G      -0.059200
      3 C15         29.1450    39.5630    37.3930 ca         1 R5G      -0.138600
      4 C20         29.5720    40.4040    38.4620 ca         1 R5G      -0.093000
      5 C21         29.4010    41.8030    38.4040 ca         1 R5G      -0.067000
      6 C22         25.7080    39.9310    33.3500 ca         1 R5G      -0.099500
      7 C04         23.5630    39.5490    34.4760 ca         1 R5G      -0.143600
      8 C05         23.8290    40.6720    35.2980 ca         1 R5G      -0.071500
      9 C06         25.0160    41.4080    35.1430 ca         1 R5G      -0.099500
     10 C07         25.9680    41.0430    34.1710 ca         1 R5G      -0.099300
     11 C11         28.4770    43.6890    36.8910 cd         1 R5G      -0.241200
     12 C12         28.8010    42.3350    37.2610 ca         1 R5G      -0.073800
     13 C14         28.5430    40.1580    36.2480 ca         1 R5G      -0.103000
     14 C16         29.3450    38.0620    37.5050 c          1 R5G       0.618700
     15 C23         24.5230    39.1920    33.5010 ca         1 R5G      -0.071500
     16 N02         21.3560    39.1670    35.5400 ns         1 R5G      -0.391400
     17 N09         27.8350    42.3730    35.2390 na         1 R5G      -0.090700
     18 N17         28.8440    37.2860    36.4630 ns         1 R5G      -0.396400
     19 O01         20.0190    38.6090    35.5740 oh         1 R5G      -0.413100
     20 O18         28.7520    35.8450    36.5800 oh         1 R5G      -0.413100
     21 O19         29.9290    37.5530    38.4550 o          1 R5G      -0.572100
     22 O24         22.1040    37.7150    33.9440 o          1 R5G      -0.569100
     23 H1          27.4910    44.5440    35.0400 h4         1 R5G       0.216000
     24 H2          30.0360    39.9710    39.3460 ha         1 R5G       0.133000
     25 H3          29.7220    42.4450    39.2220 ha         1 R5G       0.123000
     26 H4          26.4280    39.6340    32.5890 ha         1 R5G       0.122500
     27 H5          23.1300    40.9880    36.0680 ha         1 R5G       0.129000
     28 H6          25.1930    42.2670    35.7880 ha         1 R5G       0.122500
     29 H7          28.0240    41.1920    33.5200 h1         1 R5G       0.065700
     30 H8          27.0770    42.6670    33.3060 h1         1 R5G       0.065700
     31 H9          28.6710    44.5660    37.5050 ha         1 R5G       0.211000
     32 H10         28.2050    39.5640    35.4030 ha         1 R5G       0.113000
     33 H11         24.3520    38.3360    32.8510 ha         1 R5G       0.129000
     34 H12         21.4650    40.0890    35.9570 hn         1 R5G       0.342500
     35 H13         28.2290    37.7190    35.7780 hn         1 R5G       0.339500
     36 H14         19.8840    38.3860    36.5250 ho         1 R5G       0.441000
     37 H15         29.1660    35.5170    35.7480 ho         1 R5G       0.436000
     38 C08         27.2660    41.8310    33.9910 c3         1 R5G       0.123900
     39 C03         22.2940    38.7270    34.6100 c          1 R5G       0.617700
@<TRIPOS>BOND
     1     1    11 2   
     2     1    17 1   
     3     1    23 1   
     4     2    12 ar  
     5     2    13 ar  
     6     2    17 1   
     7     3     4 ar  
     8     3    13 ar  
     9     3    14 1   
    10     4     5 ar  
    11     4    24 1   
    12     5    12 ar  
    13     5    25 1   
    14     6    10 ar  
    15     6    15 ar  
    16     6    26 1   
    17     7     8 ar  
    18     7    15 ar  
    19     7    39 1   
    20     8     9 ar  
    21     8    27 1   
    22     9    10 ar  
    23     9    28 1   
    24    10    38 1   
    25    11    12 1   
    26    11    31 1   
    27    13    32 1   
    28    14    18 1   
    29    14    21 2   
    30    15    33 1   
    31    16    19 1   
    32    16    34 1   
    33    16    39 1   
    34    17    38 1   
    35    18    20 1   
    36    18    35 1   
    37    19    36 1   
    38    20    37 1   
    39    22    39 2   
    40    29    38 1   
    41    30    38 1   
@<TRIPOS>SUBSTRUCTURE
     1 R5G         1 TEMP              0 ****  ****    0 ROOT
