@<TRIPOS>MOLECULE
R5H
   56    60     1     0     0
SMALL
abcg2


@<TRIPOS>ATOM
      1 N1         -22.0380     6.5720    29.8190 n3         1 R5H      -0.796500
      2 N3         -16.4360     4.1870    26.7270 nb         1 R5H      -0.649000
      3 C4         -22.5310     5.8260    28.6620 c6         1 R5H       0.231800
      4 C5         -21.9400     4.4150    28.7280 c6         1 R5H      -0.099400
      5 C6         -20.4140     4.4440    28.5340 c          1 R5H       0.608100
      6 C7         -18.6830     5.0320    26.8850 ca         1 R5H      -0.085000
      7 C8         -17.7350     4.0590    27.0930 ca         1 R5H       0.327900
      8 C10        -16.9470     6.3700    25.8510 ca         1 R5H      -0.094000
      9 C13        -18.7230     8.4800    25.4330 ca         1 R5H      -0.077000
     10 C15        -18.3060     6.2470    26.2530 ca         1 R5H      -0.034000
     11 C17        -22.3840     2.3880    30.1430 ca         1 R5H      -0.084000
     12 C20        -22.8280     3.9520    32.3860 ca         1 R5H      -0.100000
     13 C21        -22.5170     4.5660    31.1730 ca         1 R5H      -0.064300
     14 C22        -22.4680     6.0750    31.1300 c6         1 R5H       0.267100
     15 C18        -22.6900     1.8030    31.3580 ca         1 R5H       0.126000
     16 C19        -22.9150     2.5730    32.4930 ca         1 R5H      -0.089000
     17 S          -21.6700     8.1550    29.7060 s6         1 R5H       1.319200
     18 O1         -22.5300     8.9800    30.5240 o          1 R5H      -0.575000
     19 O2         -21.5860     8.4730    28.2980 o          1 R5H      -0.575000
     20 N          -20.2110     8.1770    30.4480 nq         1 R5H      -0.745500
     21 C2         -19.4990     9.4800    30.6360 cy         1 R5H       0.175300
     22 C3         -19.0230     7.5590    29.7890 cy         1 R5H       0.175300
     23 C1         -18.1890     8.7820    30.2440 cy         1 R5H       0.141300
     24 O          -17.4900     9.4700    29.2400 os         1 R5H      -0.451000
     25 C          -16.3250     8.7700    28.8120 c3         1 R5H       0.143900
     26 C16        -22.2930     3.7760    30.0460 ca         1 R5H      -0.050300
     27 O3         -19.6300     4.1510    29.4220 o          1 R5H      -0.562100
     28 N2         -20.0220     4.8390    27.2910 ns         1 R5H      -0.166000
     29 C14        -19.1830     7.3350    26.0340 ca         1 R5H      -0.111000
     30 C12        -17.3790     8.5940    25.0170 ca         1 R5H      -0.107000
     31 C11        -16.5060     7.5580    25.2240 ca         1 R5H      -0.090000
     32 C9         -16.0680     5.2960    26.1250 ca         1 R5H       0.348900
     33 H1         -22.2390     6.3480    27.7580 h1         1 R5H       0.066700
     34 H2         -23.6230     5.7610    28.6820 h1         1 R5H       0.066700
     35 H3         -22.3670     3.8300    27.9090 hc         1 R5H       0.075700
     36 H4         -18.0110     3.1300    27.5730 h4         1 R5H       0.037100
     37 H5         -19.3980     9.3130    25.2830 ha         1 R5H       0.126000
     38 H6         -22.2120     1.7730    29.2690 ha         1 R5H       0.129000
     39 H7         -23.0060     4.5630    33.2640 ha         1 R5H       0.122000
     40 H8         -21.7680     6.4390    31.8820 h1         1 R5H       0.070200
     41 H9         -23.4570     6.4730    31.3790 h1         1 R5H       0.070200
     42 H10        -23.1540     2.1040    33.4370 ha         1 R5H       0.133000
     43 H11        -19.7840    10.2380    29.9040 h1         1 R5H       0.081200
     44 H12        -19.5820     9.8720    31.6460 h1         1 R5H       0.081200
     45 H13        -18.7740     6.5810    30.1900 h1         1 R5H       0.081200
     46 H14        -19.1150     7.5180    28.7040 h1         1 R5H       0.081200
     47 H15        -17.5350     8.5620    31.0920 h1         1 R5H       0.064700
     48 H16        -15.8540     9.3730    28.0390 h1         1 R5H       0.037033
     49 H17        -15.6290     8.6290    29.6460 h1         1 R5H       0.037033
     50 H18        -16.5840     7.7930    28.3930 h1         1 R5H       0.037033
     51 H19        -20.7410     5.0980    26.6330 hn         1 R5H       0.157000
     52 H20        -20.2100     7.2800    26.3690 ha         1 R5H       0.131000
     53 H21        -17.0410     9.5070    24.5450 ha         1 R5H       0.120000
     54 H22        -15.4680     7.6360    24.9240 ha         1 R5H       0.118000
     55 H23        -15.0260     5.3820    25.8290 h4         1 R5H       0.022100
     56 CL         -22.8010     0.0570    31.4690 cl         1 R5H      -0.207000
@<TRIPOS>BOND
     1     1     3 1   
     2     1    14 1   
     3     1    17 1   
     4     2     7 ar  
     5     2    32 ar  
     6     3     4 1   
     7     3    33 1   
     8     3    34 1   
     9     4     5 1   
    10     4    26 1   
    11     4    35 1   
    12     5    27 2   
    13     5    28 1   
    14     6     7 ar  
    15     6    10 ar  
    16     6    28 1   
    17     7    36 1   
    18     8    10 ar  
    19     8    31 ar  
    20     8    32 ar  
    21     9    29 ar  
    22     9    30 ar  
    23     9    37 1   
    24    10    29 ar  
    25    11    15 ar  
    26    11    26 ar  
    27    11    38 1   
    28    12    13 ar  
    29    12    16 ar  
    30    12    39 1   
    31    13    14 1   
    32    13    26 ar  
    33    14    40 1   
    34    14    41 1   
    35    15    16 ar  
    36    15    56 1   
    37    16    42 1   
    38    17    18 2   
    39    17    19 2   
    40    17    20 1   
    41    20    21 1   
    42    20    22 1   
    43    21    23 1   
    44    21    43 1   
    45    21    44 1   
    46    22    23 1   
    47    22    45 1   
    48    22    46 1   
    49    23    24 1   
    50    23    47 1   
    51    24    25 1   
    52    25    48 1   
    53    25    49 1   
    54    25    50 1   
    55    28    51 1   
    56    29    52 1   
    57    30    31 ar  
    58    30    53 1   
    59    31    54 1   
    60    32    55 1   
@<TRIPOS>SUBSTRUCTURE
     1 R5H         1 TEMP              0 ****  ****    0 ROOT
