@<TRIPOS>MOLECULE
R5H
   56    60     1     0     0
SMALL
No Charge or Current Charge


@<TRIPOS>ATOM
      1 N1         -21.8530     6.5590    29.5060 n3         1 R5H      -0.796500
      2 N3         -16.7980     3.8570    26.8100 nb         1 R5H      -0.649000
      3 C4         -22.7910     5.8410    28.6210 c6         1 R5H       0.231800
      4 C5         -22.4350     4.3340    28.5330 c6         1 R5H      -0.099400
      5 C6         -21.1450     4.0220    27.7370 c          1 R5H       0.608100
      6 C7         -18.9210     5.0430    27.0230 ca         1 R5H      -0.085000
      7 C8         -18.0890     3.9140    27.2140 ca         1 R5H       0.327900
      8 C10        -17.0280     6.1160    25.9530 ca         1 R5H      -0.094000
      9 C13        -18.5430     8.4310    25.4560 ca         1 R5H      -0.077000
     10 C15        -18.3770     6.1710    26.3650 ca         1 R5H      -0.034000
     11 C17        -22.3530     2.3230    30.1030 ca         1 R5H      -0.084000
     12 C20        -21.8100     3.9620    32.3160 ca         1 R5H      -0.100000
     13 C21        -21.9940     4.5430    31.0450 ca         1 R5H      -0.064300
     14 C22        -21.9430     6.0680    30.9040 c6         1 R5H       0.267100
     15 C18        -22.1670     1.7510    31.3710 ca         1 R5H       0.126000
     16 C19        -21.8930     2.5690    32.4780 ca         1 R5H      -0.089000
     17 S          -21.9360     8.2600    29.3900 s6         1 R5H       1.319200
     18 O1         -23.0730     8.7260    30.1840 o          1 R5H      -0.575000
     19 O2         -21.7520     8.6280    27.9860 o          1 R5H      -0.575000
     20 N          -20.4810     8.6240    30.1990 nq         1 R5H      -0.745500
     21 C2         -19.8220     9.9440    29.9790 cy         1 R5H       0.175300
     22 C3         -19.2260     7.9480    29.7590 cy         1 R5H       0.175300
     23 C1         -18.5040     9.1950    30.3720 cy         1 R5H       0.141300
     24 O          -17.2930     9.6390    29.7300 os         1 R5H      -0.451000
     25 C          -16.1630     8.7530    29.7940 c3         1 R5H       0.143900
     26 C16        -22.2660     3.7190    29.9310 ca         1 R5H      -0.050300
     27 O3         -20.9480     2.9000    27.2830 o          1 R5H      -0.562100
     28 N2         -20.2510     5.0630    27.5340 ns         1 R5H      -0.166000
     29 C14        -19.1350     7.3300    26.0980 ca         1 R5H      -0.111000
     30 C12        -17.1950     8.3790    25.0650 ca         1 R5H      -0.107000
     31 C11        -16.4380     7.2210    25.3080 ca         1 R5H      -0.090000
     32 C9         -16.2850     4.9450    26.1930 ca         1 R5H       0.348900
     33 H1         -22.7830     6.2610    27.6030 h1         1 R5H       0.066700
     34 H2         -23.8210     5.9470    28.9950 h1         1 R5H       0.066700
     35 H3         -23.2480     3.7940    28.0310 hc         1 R5H       0.075700
     36 H4         -18.4520     3.0310    27.7380 h4         1 R5H       0.037100
     37 H5         -19.1320     9.3250    25.2580 ha         1 R5H       0.126000
     38 H6         -22.5600     1.6770    29.2540 ha         1 R5H       0.129000
     39 H7         -21.6080     4.5910    33.1800 ha         1 R5H       0.122000
     40 H8         -21.0940     6.4370    31.4960 h1         1 R5H       0.070200
     41 H9         -22.8500     6.4610    31.3870 h1         1 R5H       0.070200
     42 H10        -21.7500     2.1240    33.4600 ha         1 R5H       0.133000
     43 H11        -19.8200    10.3040    28.9420 h1         1 R5H       0.081200
     44 H12        -20.1160    10.7520    30.6580 h1         1 R5H       0.081200
     45 H13        -18.9940     6.9910    30.2400 h1         1 R5H       0.081200
     46 H14        -19.0920     7.8670    28.6750 h1         1 R5H       0.081200
     47 H15        -18.3590     9.1180    31.4560 h1         1 R5H       0.064700
     48 H16        -15.2950     9.2040    29.2960 h1         1 R5H       0.037033
     49 H17        -15.8890     8.5440    30.8370 h1         1 R5H       0.037033
     50 H18        -16.3830     7.8000    29.2950 h1         1 R5H       0.037033
     51 H19        -20.5490     5.9550    27.9140 hn         1 R5H       0.157000
     52 H20        -20.1830     7.3880    26.3760 ha         1 R5H       0.131000
     53 H21        -16.7400     9.2320    24.5670 ha         1 R5H       0.120000
     54 H22        -15.3970     7.1820    24.9940 ha         1 R5H       0.118000
     55 H23        -15.2420     4.8730    25.8830 h4         1 R5H       0.022100
     56 Cl         -22.2730     0.0070    31.5730 cl         1 R5H      -0.207000
@<TRIPOS>BOND
     1     1     3 1   
     2     1    14 1   
     3     1    17 1   
     4     2     7 ar  
     5     2    32 ar  
     6     3     4 1   
     7     3    33 1   
     8     3    34 1   
     9     4     5 1   
    10     4    26 1   
    11     4    35 1   
    12     5    27 2   
    13     5    28 1   
    14     6     7 ar  
    15     6    10 ar  
    16     6    28 1   
    17     7    36 1   
    18     8    10 ar  
    19     8    31 ar  
    20     8    32 ar  
    21     9    29 ar  
    22     9    30 ar  
    23     9    37 1   
    24    10    29 ar  
    25    11    15 ar  
    26    11    26 ar  
    27    11    38 1   
    28    12    13 ar  
    29    12    16 ar  
    30    12    39 1   
    31    13    14 1   
    32    13    26 ar  
    33    14    40 1   
    34    14    41 1   
    35    15    16 ar  
    36    15    56 1   
    37    16    42 1   
    38    17    18 2   
    39    17    19 2   
    40    17    20 1   
    41    20    21 1   
    42    20    22 1   
    43    21    23 1   
    44    21    43 1   
    45    21    44 1   
    46    22    23 1   
    47    22    45 1   
    48    22    46 1   
    49    23    24 1   
    50    23    47 1   
    51    24    25 1   
    52    25    48 1   
    53    25    49 1   
    54    25    50 1   
    55    28    51 1   
    56    29    52 1   
    57    30    31 ar  
    58    30    53 1   
    59    31    54 1   
    60    32    55 1   
@<TRIPOS>SUBSTRUCTURE
     1 R5H         1 TEMP              0 ****  ****    0 ROOT
