@<TRIPOS>MOLECULE
R5I
   56    59     1     0     0
SMALL
No Charge or Current Charge


@<TRIPOS>ATOM
      1 O1           7.2930    -0.2680     3.2350 o          1 R5I      -0.534000
      2 C6           6.7710     0.3720     2.3300 c          1 R5I       0.503500
      3 N1           7.4040     1.4190     1.7280 ns         1 R5I      -0.437400
      4 C2           6.8700     2.1790     0.7110 cc         1 R5I       0.472800
      5 N3           5.6580     1.9900     0.1730 nd         1 R5I      -0.593100
      6 C4           4.9500     0.9260     0.7350 cd         1 R5I       0.047400
      7 C5           5.4240     0.1380     1.7500 cc         1 R5I       0.136500
      8 N7           4.4960    -0.8170     2.0960 nc         1 R5I      -0.624000
      9 C8           3.4510    -0.6070     1.2880 cd         1 R5I       0.457400
     10 N9           3.6940     0.4550     0.4160 na         1 R5I      -0.177500
     11 C1           2.7860     0.9800    -0.6120 c5         1 R5I       0.311300
     12 O4           1.5730     0.1720    -0.6330 os         1 R5I      -0.398000
     13 C9           1.4310    -0.4500    -1.9370 c5         1 R5I       0.158300
     14 C10          0.7770    -1.8620    -1.8600 c3         1 R5I       0.226600
     15 O5          -0.5850    -1.7770    -1.3950 os         1 R5I      -0.557400
     16 PA          -0.9850    -2.2130     0.1090 p5         1 R5I       1.453800
     17 O2A         -1.6310    -3.5630     0.0650 o          1 R5I      -0.848000
     18 O1A          0.2090    -2.1700     1.0060 o          1 R5I      -0.848000
     19 O3A         -2.0090    -1.0380     0.3670 os         1 R5I      -0.684800
     20 PB          -2.3650    -0.8450     1.8910 p5         1 R5I       1.455800
     21 O2B         -1.4300     0.0820     2.5990 o          1 R5I      -0.850500
     22 O1B         -2.5950    -2.1130     2.6480 o          1 R5I      -0.850500
     23 O5D         -3.7970    -0.1230     1.6820 os         1 R5I      -0.559400
     24 C5D         -3.8620     1.1700     1.0520 c3         1 R5I       0.211600
     25 C4D         -4.3550     1.0270    -0.4330 c5         1 R5I       0.167300
     26 O4D         -4.9850    -0.2610    -0.6980 os         1 R5I      -0.437000
     27 C1D         -6.3690    -0.1400    -0.3730 c5         1 R5I       0.361300
     28 O1D         -6.4930    -0.1540     1.0370 oh         1 R5I      -0.721000
     29 C2D         -6.7590     1.2320    -1.0430 c5         1 R5I       0.089300
     30 O2D         -7.0250     1.1130    -2.4720 oh         1 R5I      -0.738000
     31 C3D         -5.4540     2.0910    -0.8220 c5         1 R5I       0.136300
     32 O3D         -5.1780     2.7720    -2.0480 oh         1 R5I      -0.719000
     33 C3           2.8820    -0.4650    -2.5120 c5         1 R5I       0.081300
     34 O3           2.9390    -0.6260    -3.9400 oh         1 R5I      -0.697000
     35 C7           3.3490     0.9520    -2.0800 c5         1 R5I       0.090300
     36 O2           2.7740     1.9460    -2.9460 oh         1 R5I      -0.709000
     37 H1           8.3300     1.6410     2.0670 hn         1 R5I       0.312500
     38 H2           7.5420     2.9610     0.3790 h5         1 R5I       0.034800
     39 H3           2.5240    -1.1660     1.2780 h5         1 R5I       0.111100
     40 H4           2.5590     2.0110    -0.3080 h2         1 R5I       0.107700
     41 H5           0.7840     0.1880    -2.5540 h1         1 R5I       0.091700
     42 H6           0.7880    -2.3030    -2.8670 h1         1 R5I       0.020200
     43 H7           1.3880    -2.5130    -1.2200 h1         1 R5I       0.020200
     44 H10         -4.5610     1.8090     1.6130 h1         1 R5I       0.014700
     45 H11         -2.8870     1.6800     1.0570 h1         1 R5I       0.014700
     46 H12         -3.4690     1.1100    -1.0800 h1         1 R5I       0.091700
     47 H13         -6.9390    -0.9760    -0.8010 h2         1 R5I       0.023700
     48 H14         -5.5570    -0.3020     1.3340 ho         1 R5I       0.511000
     49 H15         -7.6200     1.6840    -0.5270 h1         1 R5I       0.078700
     50 H16         -7.8020     0.5070    -2.5810 ho         1 R5I       0.509000
     51 H17         -5.6010     2.8200    -0.0090 h1         1 R5I       0.056700
     52 H18         -5.8270     2.3060    -2.6470 ho         1 R5I       0.500000
     53 H19          3.4810    -1.2420    -2.0130 h1         1 R5I       0.056700
     54 H20          3.8130    -1.0300    -4.1620 ho         1 R5I       0.496000
     55 H21          4.4460     1.0270    -2.0950 h1         1 R5I       0.052700
     56 H22          2.6620     1.4740    -3.8090 ho         1 R5I       0.518000
@<TRIPOS>BOND
     1     1     2 2   
     2     2     3 1   
     3     2     7 1   
     4     3     4 1   
     5     3    37 1   
     6     4     5 2   
     7     4    38 1   
     8     5     6 1   
     9     6     7 2   
    10     6    10 1   
    11     7     8 1   
    12     8     9 2   
    13     9    10 1   
    14     9    39 1   
    15    10    11 1   
    16    11    12 1   
    17    11    35 1   
    18    11    40 1   
    19    12    13 1   
    20    13    14 1   
    21    13    33 1   
    22    13    41 1   
    23    14    15 1   
    24    14    42 1   
    25    14    43 1   
    26    15    16 1   
    27    16    17 1   
    28    16    18 1   
    29    16    19 1   
    30    19    20 1   
    31    20    21 1   
    32    20    22 1   
    33    20    23 1   
    34    23    24 1   
    35    24    25 1   
    36    24    44 1   
    37    24    45 1   
    38    25    26 1   
    39    25    31 1   
    40    25    46 1   
    41    26    27 1   
    42    27    28 1   
    43    27    29 1   
    44    27    47 1   
    45    28    48 1   
    46    29    30 1   
    47    29    31 1   
    48    29    49 1   
    49    30    50 1   
    50    31    32 1   
    51    31    51 1   
    52    32    52 1   
    53    33    34 1   
    54    33    35 1   
    55    33    53 1   
    56    34    54 1   
    57    35    36 1   
    58    35    55 1   
    59    36    56 1   
@<TRIPOS>SUBSTRUCTURE
     1 R5I         1 TEMP              0 ****  ****    0 ROOT
