@<TRIPOS>MOLECULE
R5I
   56    59     1     0     0
SMALL
abcg2


@<TRIPOS>ATOM
      1 O1           7.9600     1.0720     3.3910 o          1 R5I      -0.534000
      2 C6           7.5650     1.2010     2.2470 c          1 R5I       0.503500
      3 N1           8.3570     1.8080     1.2650 ns         1 R5I      -0.437400
      4 C2           8.0110     2.0030    -0.0270 cc         1 R5I       0.472800
      5 N3           6.8820     1.6490    -0.5480 nd         1 R5I      -0.593100
      6 C4           6.0660     1.0530     0.3460 cd         1 R5I       0.047400
      7 C5           6.3120     0.8020     1.6820 cc         1 R5I       0.136500
      8 N7           5.2370     0.1920     2.2590 nc         1 R5I      -0.624000
      9 C8           4.3670     0.0750     1.2970 cd         1 R5I       0.457400
     10 N9           4.8170     0.5760     0.1080 na         1 R5I      -0.177500
     11 C1           4.1260     0.6410    -1.1810 c5         1 R5I       0.311300
     12 O4           2.7850     0.3160    -0.9950 os         1 R5I      -0.398000
     13 C9           2.4660    -0.9390    -1.5990 c5         1 R5I       0.158300
     14 C10          1.5930    -1.7610    -0.6860 c3         1 R5I       0.226600
     15 O5           0.3860    -1.0750    -0.4540 os         1 R5I      -0.557400
     16 PA          -0.8450    -1.9430     0.2230 p5         1 R5I       1.453800
     17 O2A         -1.3540    -2.9270    -0.7820 o          1 R5I      -0.848000
     18 O1A         -0.4450    -2.3900     1.5930 o          1 R5I      -0.848000
     19 O3A         -1.8450    -0.6450     0.3030 os         1 R5I      -0.684800
     20 PB          -3.0810    -0.5200     1.3770 p5         1 R5I       1.455800
     21 O2B         -2.6400     0.2750     2.5650 o          1 R5I      -0.850500
     22 O1B         -3.7630    -1.8390     1.5540 o          1 R5I      -0.850500
     23 O5D         -3.9780     0.4410     0.3850 os         1 R5I      -0.559400
     24 C5D         -5.2600     0.8110     0.8420 c3         1 R5I       0.211600
     25 C4D         -5.8400     1.8310    -0.1200 c5         1 R5I       0.167300
     26 O4D         -5.9160     1.3140    -1.4430 os         1 R5I      -0.437000
     27 C1D         -7.2480     1.0030    -1.7930 c5         1 R5I       0.361300
     28 O1D         -7.3590    -0.2960    -2.2630 oh         1 R5I      -0.721000
     29 C2D         -8.0570     1.1630    -0.5060 c5         1 R5I       0.089300
     30 O2D         -9.3840     1.5630    -0.6940 oh         1 R5I      -0.738000
     31 C3D         -7.2660     2.2210     0.2510 c5         1 R5I       0.136300
     32 O3D         -7.5160     3.5140    -0.2430 oh         1 R5I      -0.719000
     33 C3           3.8160    -1.5910    -1.8860 c5         1 R5I       0.081300
     34 O3           3.7080    -2.4770    -2.9640 oh         1 R5I      -0.697000
     35 C7           4.6970    -0.3700    -2.1740 c5         1 R5I       0.090300
     36 O2           4.4650     0.1280    -3.4620 oh         1 R5I      -0.709000
     37 H1           9.2710     2.1320     1.5550 hn         1 R5I       0.312500
     38 H2           8.7570     2.4930    -0.6380 h5         1 R5I       0.034800
     39 H3           3.3840    -0.3540     1.4060 h5         1 R5I       0.111100
     40 H4           4.2280     1.6660    -1.5470 h2         1 R5I       0.107700
     41 H5           1.9350    -0.7570    -2.5410 h1         1 R5I       0.091700
     42 H6           1.4240    -2.7280    -1.1760 h1         1 R5I       0.020200
     43 H7           2.1210    -1.9660     0.2540 h1         1 R5I       0.020200
     44 H10         -5.9150    -0.0640     0.9180 h1         1 R5I       0.014700
     45 H11         -5.2130     1.2690     1.8380 h1         1 R5I       0.014700
     46 H12         -5.1900     2.7120    -0.1280 h1         1 R5I       0.091700
     47 H13         -7.5890     1.7180    -2.5550 h2         1 R5I       0.023700
     48 H14         -7.1110    -0.3240    -3.1920 ho         1 R5I       0.511000
     49 H15         -8.0030     0.2190     0.0560 h1         1 R5I       0.078700
     50 H16         -9.8770     0.8360    -1.0870 ho         1 R5I       0.509000
     51 H17         -7.4380     2.1660     1.3340 h1         1 R5I       0.056700
     52 H18         -8.4650     3.6750    -0.2050 ho         1 R5I       0.500000
     53 H19          4.1860    -2.0970    -0.9850 h1         1 R5I       0.056700
     54 H20          4.4690    -3.0670    -2.9570 ho         1 R5I       0.496000
     55 H21          5.7610    -0.5690    -1.9980 h1         1 R5I       0.052700
     56 H22          4.3540    -0.6260    -4.0540 ho         1 R5I       0.518000
@<TRIPOS>BOND
     1     1     2 2   
     2     2     3 1   
     3     2     7 1   
     4     3     4 1   
     5     3    37 1   
     6     4     5 2   
     7     4    38 1   
     8     5     6 1   
     9     6     7 2   
    10     6    10 1   
    11     7     8 1   
    12     8     9 2   
    13     9    10 1   
    14     9    39 1   
    15    10    11 1   
    16    11    12 1   
    17    11    35 1   
    18    11    40 1   
    19    12    13 1   
    20    13    14 1   
    21    13    33 1   
    22    13    41 1   
    23    14    15 1   
    24    14    42 1   
    25    14    43 1   
    26    15    16 1   
    27    16    17 1   
    28    16    18 1   
    29    16    19 1   
    30    19    20 1   
    31    20    21 1   
    32    20    22 1   
    33    20    23 1   
    34    23    24 1   
    35    24    25 1   
    36    24    44 1   
    37    24    45 1   
    38    25    26 1   
    39    25    31 1   
    40    25    46 1   
    41    26    27 1   
    42    27    28 1   
    43    27    29 1   
    44    27    47 1   
    45    28    48 1   
    46    29    30 1   
    47    29    31 1   
    48    29    49 1   
    49    30    50 1   
    50    31    32 1   
    51    31    51 1   
    52    32    52 1   
    53    33    34 1   
    54    33    35 1   
    55    33    53 1   
    56    34    54 1   
    57    35    36 1   
    58    35    55 1   
    59    36    56 1   
@<TRIPOS>SUBSTRUCTURE
     1 R5I         1 TEMP              0 ****  ****    0 ROOT
