@<TRIPOS>MOLECULE
R5R
   44    46     1     0     0
SMALL
No Charge or Current Charge


@<TRIPOS>ATOM
      1 C13         96.4990   128.9680   128.2860 cc         1 R5R      -0.100000
      2 C15         97.9100   127.2720   129.1500 cd         1 R5R      -0.066000
      3 C17         94.6520   129.9640   129.6790 c3         1 R5R      -0.036800
      4 C22         95.0110   127.1600   134.3310 c3         1 R5R       0.086800
      5 C02        101.4320   122.7510   131.8400 ca         1 R5R      -0.073300
      6 C03        101.1640   123.8650   132.6560 ca         1 R5R      -0.116500
      7 C04        100.2920   124.8750   132.2150 ca         1 R5R      -0.087500
      8 C05         99.6550   124.7740   130.9600 ca         1 R5R      -0.017800
      9 C06         99.9520   123.6730   130.1330 ca         1 R5R      -0.087500
     10 C07        100.8250   122.6630   130.5740 ca         1 R5R      -0.116500
     11 C08         98.7850   125.8460   130.4690 cc         1 R5R       0.143400
     12 C09         97.7460   126.3660   131.2240 cd         1 R5R      -0.158300
     13 C11         96.1560   128.1470   130.6020 cd         1 R5R      -0.100000
     14 C12         95.7930   128.9890   129.5510 cc         1 R5R      -0.111300
     15 C14         97.5620   128.1200   128.0620 cd         1 R5R      -0.075000
     16 C18         97.1940   126.0120   132.5960 c3         1 R5R      -0.075200
     17 C19         95.7380   125.4910   132.5630 c          1 R5R       0.590100
     18 N10         97.2300   127.2900   130.3400 na         1 R5R       0.141100
     19 N16         98.8760   126.3750   129.2000 nc         1 R5R      -0.287600
     20 N21         94.7140   126.1930   133.2470 n          1 R5R      -0.420800
     21 O20         95.4680   124.4820   131.9220 o          1 R5R      -0.589100
     22 H1          96.1780   129.6440   127.4990 ha         1 R5R       0.121000
     23 H2          93.8890   129.7740   128.9150 hc         1 R5R       0.045033
     24 H3          94.1680   129.8880   130.6600 hc         1 R5R       0.045033
     25 H4          95.0040   130.9950   129.5580 hc         1 R5R       0.045033
     26 H5          94.1040   127.3850   134.9070 h1         1 R5R       0.042700
     27 H6          95.7570   126.7370   135.0150 h1         1 R5R       0.042700
     28 H7          95.3950   128.0950   133.9050 h1         1 R5R       0.042700
     29 H8         102.8920   121.1790   131.4770 hc         1 R5R       0.041700
     30 H9         103.1420   122.0560   132.9920 hc         1 R5R       0.041700
     31 H10        101.8250   120.8780   132.8600 hc         1 R5R       0.041700
     32 H11        101.6380   123.9540   133.6310 ha         1 R5R       0.109500
     33 H12        100.1180   125.7430   132.8460 ha         1 R5R       0.118000
     34 H13         99.4960   123.5950   129.1490 ha         1 R5R       0.118000
     35 H14        101.0300   121.8120   129.9280 ha         1 R5R       0.109500
     36 H15         95.6820   128.1170   131.5720 h4         1 R5R       0.140000
     37 H16         98.0980   128.1020   127.1190 ha         1 R5R       0.142000
     38 H17         97.7860   125.2030   133.0360 hc         1 R5R       0.070700
     39 H18         97.3030   126.8770   133.2550 hc         1 R5R       0.070700
     40 H19         92.6270   126.5580   133.4580 h1         1 R5R       0.042700
     41 H20         93.0790   125.5840   132.0380 h1         1 R5R       0.042700
     42 H21         93.1270   124.8550   133.6710 h1         1 R5R       0.042700
     43 C01        102.3750   121.6570   132.3180 c3         1 R5R      -0.045800
     44 C23         93.3030   125.7730   133.0960 c3         1 R5R       0.086800
@<TRIPOS>BOND
     1     1    14 1   
     2     1    15 2   
     3     1    22 1   
     4     2    15 1   
     5     2    18 1   
     6     2    19 2   
     7     3    14 1   
     8     3    23 1   
     9     3    24 1   
    10     3    25 1   
    11     4    20 1   
    12     4    26 1   
    13     4    27 1   
    14     4    28 1   
    15     5     6 ar  
    16     5    10 ar  
    17     5    43 1   
    18     6     7 ar  
    19     6    32 1   
    20     7     8 ar  
    21     7    33 1   
    22     8     9 ar  
    23     8    11 1   
    24     9    10 ar  
    25     9    34 1   
    26    10    35 1   
    27    11    12 2   
    28    11    19 1   
    29    12    16 1   
    30    12    18 1   
    31    13    14 2   
    32    13    18 1   
    33    13    36 1   
    34    15    37 1   
    35    16    17 1   
    36    16    38 1   
    37    16    39 1   
    38    17    20 1   
    39    17    21 2   
    40    20    44 1   
    41    29    43 1   
    42    30    43 1   
    43    31    43 1   
    44    40    44 1   
    45    41    44 1   
    46    42    44 1   
@<TRIPOS>SUBSTRUCTURE
     1 R5R         1 TEMP              0 ****  ****    0 ROOT
