@<TRIPOS>MOLECULE
R5R
   44    46     1     0     0
SMALL
abcg2


@<TRIPOS>ATOM
      1 C13         96.6370   129.0220   127.9340 cc         1 R5R      -0.100000
      2 C15         97.9430   127.2960   128.9630 cd         1 R5R      -0.066000
      3 C17         94.8030   130.2280   129.2160 c3         1 R5R      -0.036800
      4 C22         95.4130   126.3520   134.8050 c3         1 R5R       0.086800
      5 C02        101.1660   122.7630   132.0130 ca         1 R5R      -0.073300
      6 C03        100.8590   123.8810   132.7870 ca         1 R5R      -0.116500
      7 C04        100.0660   124.9080   132.2880 ca         1 R5R      -0.087500
      8 C05         99.5450   124.8470   130.9920 ca         1 R5R      -0.017800
      9 C06         99.8660   123.7320   130.2080 ca         1 R5R      -0.087500
     10 C07        100.6590   122.7120   130.7110 ca         1 R5R      -0.116500
     11 C08         98.7030   125.9170   130.4420 cc         1 R5R       0.143400
     12 C09         97.6890   126.6150   131.0790 cd         1 R5R      -0.158300
     13 C11         96.2010   128.4250   130.2170 cd         1 R5R      -0.100000
     14 C12         95.8970   129.2010   129.1380 cc         1 R5R      -0.111300
     15 C14         97.6370   128.0920   127.8430 cd         1 R5R      -0.075000
     16 C18         97.0680   126.4960   132.4210 c3         1 R5R      -0.075200
     17 C19         95.6590   125.8850   132.3690 c          1 R5R       0.590100
     18 N10         97.2090   127.4980   130.1330 na         1 R5R       0.141100
     19 N16         98.8480   126.3370   129.1420 nc         1 R5R      -0.287600
     20 N21         94.9300   125.9110   133.5050 n          1 R5R      -0.420800
     21 O20         95.2300   125.3980   131.3210 o          1 R5R      -0.589100
     22 H1          96.3940   129.6370   127.0760 ha         1 R5R       0.121000
     23 H2          94.0490   130.0530   128.4450 hc         1 R5R       0.045033
     24 H3          94.3120   130.2080   130.1880 hc         1 R5R       0.045033
     25 H4          95.2030   131.2330   129.0550 hc         1 R5R       0.045033
     26 H5          95.3670   125.5220   135.5150 h1         1 R5R       0.042700
     27 H6          96.4370   126.7020   134.7560 h1         1 R5R       0.042700
     28 H7          94.7820   127.1610   135.1820 h1         1 R5R       0.042700
     29 H8         102.7940   121.3590   131.8520 hc         1 R5R       0.041700
     30 H9         102.4770   121.9210   133.5000 hc         1 R5R       0.041700
     31 H10        101.4020   120.7490   132.7350 hc         1 R5R       0.041700
     32 H11        101.2560   123.9580   133.7920 ha         1 R5R       0.109500
     33 H12         99.8780   125.7780   132.9030 ha         1 R5R       0.118000
     34 H13         99.4810   123.6690   129.1990 ha         1 R5R       0.118000
     35 H14        100.8880   121.8570   130.0840 ha         1 R5R       0.109500
     36 H15         95.6860   128.5000   131.1620 h4         1 R5R       0.140000
     37 H16         98.2010   127.9460   126.9320 ha         1 R5R       0.142000
     38 H17         97.6880   125.8610   133.0520 hc         1 R5R       0.070700
     39 H18         97.0300   127.4720   132.9110 hc         1 R5R       0.070700
     40 H19         92.9330   126.0060   134.0960 h1         1 R5R       0.042700
     41 H20         93.2120   125.2780   132.4980 h1         1 R5R       0.042700
     42 H21         93.5810   124.3590   133.9730 h1         1 R5R       0.042700
     43 C01        102.0090   121.6410   132.5570 c3         1 R5R      -0.045800
     44 C23         93.5850   125.3520   133.5140 c3         1 R5R       0.086800
@<TRIPOS>BOND
     1     1    14 1   
     2     1    15 2   
     3     1    22 1   
     4     2    15 1   
     5     2    18 1   
     6     2    19 2   
     7     3    14 1   
     8     3    23 1   
     9     3    24 1   
    10     3    25 1   
    11     4    20 1   
    12     4    26 1   
    13     4    27 1   
    14     4    28 1   
    15     5     6 ar  
    16     5    10 ar  
    17     5    43 1   
    18     6     7 ar  
    19     6    32 1   
    20     7     8 ar  
    21     7    33 1   
    22     8     9 ar  
    23     8    11 1   
    24     9    10 ar  
    25     9    34 1   
    26    10    35 1   
    27    11    12 2   
    28    11    19 1   
    29    12    16 1   
    30    12    18 1   
    31    13    14 2   
    32    13    18 1   
    33    13    36 1   
    34    15    37 1   
    35    16    17 1   
    36    16    38 1   
    37    16    39 1   
    38    17    20 1   
    39    17    21 2   
    40    20    44 1   
    41    29    43 1   
    42    30    43 1   
    43    31    43 1   
    44    40    44 1   
    45    41    44 1   
    46    42    44 1   
@<TRIPOS>SUBSTRUCTURE
     1 R5R         1 TEMP              0 ****  ****    0 ROOT
