@<TRIPOS>MOLECULE
R5S
   57    61     1     0     0
SMALL
No Charge or Current Charge


@<TRIPOS>ATOM
      1 N12         35.9120     1.1910    14.5560 nu         1 R5S      -0.932900
      2 C13         37.1140     0.6060    14.1430 ca         1 R5S       0.323000
      3 C15         39.5350     0.7980    13.8860 ca         1 R5S      -0.078000
      4 C17         40.9440    -1.1220    12.9340 c6         1 R5S      -0.009400
      5 C21         42.9670    -0.9540    11.3780 c6         1 R5S       0.158800
      6 C22         41.6090    -0.3250    11.7790 c6         1 R5S      -0.069900
      7 C24         37.1820    -0.7060    13.6370 ca         1 R5S      -0.155500
      8 C26         32.4410     1.5670    14.6320 ca         1 R5S       0.397900
      9 C28         30.5030     0.8750    13.4760 c5         1 R5S      -0.009100
     10 C02         30.6700    -4.9030    11.7480 c1         1 R5S       0.291900
     11 C03         30.8620    -4.6840    10.3110 c3         1 R5S      -0.034300
     12 C04         30.6700    -3.2100     9.8890 c3         1 R5S       0.094600
     13 C07         33.5090    -1.3020    10.7400 cc         1 R5S       0.296900
     14 C08         32.6570    -0.8150    11.7410 cc         1 R5S      -0.271500
     15 C09         32.9690     0.0930    12.8450 ca         1 R5S       0.303500
     16 C11         34.5790     1.0250    14.2130 ca         1 R5S       0.425900
     17 C14         38.3000     1.3450    14.2760 ca         1 R5S      -0.155500
     18 C16         39.6010    -0.5090    13.3640 ca         1 R5S      -0.107300
     19 C18         41.9380    -1.2470    14.1200 c6         1 R5S      -0.069900
     20 C19         43.2870    -1.8510    13.6560 c6         1 R5S       0.158800
     21 C23         38.4150    -1.2590    13.2460 ca         1 R5S      -0.078000
     22 C27         32.0020     0.7790    13.6070 ca         1 R5S      -0.307300
     23 C29         30.2350     2.1670    14.3490 c5         1 R5S       0.213800
     24 C31         31.4700    -1.4740    11.5980 cd         1 R5S      -0.130000
     25 N01         30.4940    -5.0590    12.8890 n1         1 R5S      -0.445000
     26 N05         31.6610    -2.2890    10.4760 na         1 R5S       0.120800
     27 N06         32.9410    -2.1840     9.9440 nd         1 R5S      -0.538800
     28 N10         34.2730     0.2230    13.1730 nb         1 R5S      -0.278000
     29 N20         43.8750    -1.0660    12.5440 n7         1 R5S      -0.862400
     30 N25         33.7200     1.7250    14.9700 nb         1 R5S      -0.305000
     31 N30         31.4160     2.2070    15.2810 nu         1 R5S      -0.923100
     32 H1          36.0400     1.9710    15.1980 hn         1 R5S       0.508000
     33 H2          40.4380     1.3950    13.9920 ha         1 R5S       0.111000
     34 H3          40.7540    -2.1380    12.5600 hc         1 R5S       0.044700
     35 H4          42.7960    -1.9540    10.9520 h1         1 R5S       0.027450
     36 H5          43.4430    -0.3390    10.6000 h1         1 R5S       0.027450
     37 H6          41.7690     0.7190    12.0770 hc         1 R5S       0.049200
     38 H7          40.9420    -0.3030    10.9070 hc         1 R5S       0.049200
     39 H8          36.2880    -1.3160    13.5600 ha         1 R5S       0.127500
     40 H9          30.1550     1.0000    12.4440 hc         1 R5S       0.053200
     41 H10         30.0010     0.0000    13.9050 hc         1 R5S       0.053200
     42 H11         30.1480    -5.3120     9.7670 hc         1 R5S       0.088700
     43 H12         31.8670    -5.0220    10.0310 hc         1 R5S       0.088700
     44 H13         29.6650    -2.8730    10.1730 h1         1 R5S       0.070700
     45 H14         30.7430    -3.1390     8.7970 h1         1 R5S       0.070700
     46 H15         34.5450    -1.0360    10.5720 h4         1 R5S       0.055100
     47 H16         38.2680     2.3550    14.6750 ha         1 R5S       0.127500
     48 H17         42.1190    -0.2630    14.5720 hc         1 R5S       0.049200
     49 H18         41.5040    -1.8780    14.9070 hc         1 R5S       0.049200
     50 H19         43.1290    -2.8890    13.3260 h1         1 R5S       0.027450
     51 H20         43.9910    -1.8740    14.5010 h1         1 R5S       0.027450
     52 H21         38.4430    -2.2740    12.8570 ha         1 R5S       0.111000
     53 H22         30.2210     3.0550    13.7010 h1         1 R5S       0.045700
     54 H23         30.5510    -1.4670    12.1720 h4         1 R5S       0.157000
     55 H24         44.7470    -1.5210    12.2430 hn         1 R5S       0.408000
     56 H26         29.2690     2.1240    14.8740 h1         1 R5S       0.045700
     57 H25         31.6860     3.0660    15.7650 hn         1 R5S       0.504000
@<TRIPOS>BOND
     1     1     2 1   
     2     1    16 1   
     3     1    32 1   
     4     2     7 ar  
     5     2    17 ar  
     6     3    17 ar  
     7     3    18 ar  
     8     3    33 1   
     9     4     6 1   
    10     4    18 1   
    11     4    19 1   
    12     4    34 1   
    13     5     6 1   
    14     5    29 1   
    15     5    35 1   
    16     5    36 1   
    17     6    37 1   
    18     6    38 1   
    19     7    21 ar  
    20     7    39 1   
    21     8    22 ar  
    22     8    30 ar  
    23     8    31 1   
    24     9    22 1   
    25     9    23 1   
    26     9    40 1   
    27     9    41 1   
    28    10    11 1   
    29    10    25 3   
    30    11    12 1   
    31    11    42 1   
    32    11    43 1   
    33    12    26 1   
    34    12    44 1   
    35    12    45 1   
    36    13    14 1   
    37    13    27 2   
    38    13    46 1   
    39    14    15 1   
    40    14    24 2   
    41    15    22 ar  
    42    15    28 ar  
    43    16    28 ar  
    44    16    30 ar  
    45    17    47 1   
    46    18    21 ar  
    47    19    20 1   
    48    19    48 1   
    49    19    49 1   
    50    20    29 1   
    51    20    50 1   
    52    20    51 1   
    53    21    52 1   
    54    23    31 1   
    55    23    53 1   
    56    23    56 1   
    57    24    26 1   
    58    24    54 1   
    59    26    27 1   
    60    29    55 1   
    61    31    57 1   
@<TRIPOS>SUBSTRUCTURE
     1 R5S         1 TEMP              0 ****  ****    0 ROOT
