@<TRIPOS>MOLECULE
R5S
   57    61     1     0     0
SMALL
bcc


@<TRIPOS>ATOM
      1 N12         35.9510     1.2910    14.4270 nu         1 R5S      -0.739300
      2 C13         37.1150     0.6730    13.9860 ca         1 R5S       0.184600
      3 C15         39.5380     0.7300    13.9770 ca         1 R5S      -0.096000
      4 C17         40.9260    -1.0590    12.8370 c6         1 R5S      -0.009400
      5 C21         43.0470    -0.7830    11.5150 c6         1 R5S       0.158800
      6 C22         41.7120    -0.1530    11.8830 c6         1 R5S      -0.069900
      7 C24         37.1700    -0.5100    13.2480 ca         1 R5S      -0.173500
      8 C26         32.5290     1.7100    14.5120 ca         1 R5S       0.726200
      9 C28         30.5480     0.8590    13.5410 c5         1 R5S      -0.009100
     10 C02         30.5290    -4.8250    11.7710 c1         1 R5S       0.202700
     11 C03         30.7820    -4.6850    10.3460 c3         1 R5S      -0.034300
     12 C04         30.7250    -3.2240     9.9010 c3         1 R5S       0.065300
     13 C07         33.6010    -1.7510    11.1870 cc         1 R5S       0.362200
     14 C08         32.6780    -1.0110    11.9570 cc         1 R5S      -0.336800
     15 C09         32.9890     0.0050    12.9500 ca         1 R5S       0.631800
     16 C11         34.6360     1.0800    14.1190 ca         1 R5S       0.951900
     17 C14         38.3250     1.2810    14.3430 ca         1 R5S      -0.173500
     18 C16         39.6070    -0.4540    13.2410 ca         1 R5S      -0.107300
     19 C18         41.8030    -1.4200    14.0400 c6         1 R5S      -0.069900
     20 C19         43.1350    -1.9980    13.5840 c6         1 R5S       0.158800
     21 C23         38.4010    -1.0470    12.8900 ca         1 R5S      -0.096000
     22 C27         32.0450     0.7730    13.5770 ca         1 R5S      -0.437900
     23 C29         30.2570     2.1240    14.3800 c5         1 R5S       0.213800
     24 C31         31.4480    -1.4840    11.5360 cd         1 R5S      -0.097300
     25 N01         30.3290    -4.9140    12.9000 n1         1 R5S      -0.355800
     26 N05         31.6910    -2.4100    10.5960 na         1 R5S       0.099400
     27 N06         32.9930    -2.5880    10.3740 nd         1 R5S      -0.538800
     28 N10         34.3050     0.1690    13.2280 nb         1 R5S      -0.804000
     29 N20         43.8160    -1.0540    12.7160 n7         1 R5S      -0.807200
     30 N25         33.8020     1.8870    14.8000 nb         1 R5S      -0.831000
     31 N30         31.5110     2.3830    15.0760 nu         1 R5S      -0.867900
     32 H1          36.0860     2.0530    15.0730 hn         1 R5S       0.452800
     33 H2          40.4470     1.2390    14.2750 ha         1 R5S       0.129000
     34 H3          40.7100    -1.9900    12.2990 hc         1 R5S       0.044700
     35 H4          42.8580    -1.6930    10.9210 h1         1 R5S       0.027450
     36 H5          43.6160    -0.1030    10.8760 h1         1 R5S       0.027450
     37 H6          41.8910     0.8180    12.3570 hc         1 R5S       0.049200
     38 H7          41.1300     0.0340    10.9780 hc         1 R5S       0.049200
     39 H8          36.2620    -1.0100    12.9530 ha         1 R5S       0.145500
     40 H9          30.1430     0.9550    12.5330 hc         1 R5S       0.053200
     41 H10         30.0860    -0.0250    13.9900 hc         1 R5S       0.053200
     42 H11         30.0350    -5.2590     9.7970 hc         1 R5S       0.088700
     43 H12         31.7580    -5.1170    10.1190 hc         1 R5S       0.088700
     44 H13         29.7370    -2.8060    10.0840 h1         1 R5S       0.070700
     45 H14         30.9180    -3.1760     8.8300 h1         1 R5S       0.070700
     46 H15         34.6780    -1.6850    11.2000 h4         1 R5S       0.055100
     47 H16         38.3120     2.2030    14.9150 ha         1 R5S       0.145500
     48 H17         41.9880    -0.5300    14.6490 hc         1 R5S       0.049200
     49 H18         41.2880    -2.1430    14.6770 hc         1 R5S       0.049200
     50 H19         42.9500    -2.9660    13.0890 h1         1 R5S       0.027450
     51 H20         43.7680    -2.2030    14.4500 h1         1 R5S       0.027450
     52 H21         38.4110    -1.9700    12.3200 ha         1 R5S       0.129000
     53 H22         29.9910     2.9680    13.7380 h1         1 R5S       0.045700
     54 H23         30.4400    -1.2420    11.8290 h4         1 R5S       0.175000
     55 H24         44.7220    -1.4250    12.4600 hn         1 R5S       0.352800
     56 H26         29.4420     1.9720    15.0870 h1         1 R5S       0.045700
     57 H25         31.6620     3.2350    15.5910 hn         1 R5S       0.448800
@<TRIPOS>BOND
     1     1     2 1   
     2     1    16 1   
     3     1    32 1   
     4     2     7 ar  
     5     2    17 ar  
     6     3    17 ar  
     7     3    18 ar  
     8     3    33 1   
     9     4     6 1   
    10     4    18 1   
    11     4    19 1   
    12     4    34 1   
    13     5     6 1   
    14     5    29 1   
    15     5    35 1   
    16     5    36 1   
    17     6    37 1   
    18     6    38 1   
    19     7    21 ar  
    20     7    39 1   
    21     8    22 ar  
    22     8    30 ar  
    23     8    31 1   
    24     9    22 1   
    25     9    23 1   
    26     9    40 1   
    27     9    41 1   
    28    10    11 1   
    29    10    25 3   
    30    11    12 1   
    31    11    42 1   
    32    11    43 1   
    33    12    26 1   
    34    12    44 1   
    35    12    45 1   
    36    13    14 1   
    37    13    27 2   
    38    13    46 1   
    39    14    15 1   
    40    14    24 2   
    41    15    22 ar  
    42    15    28 ar  
    43    16    28 ar  
    44    16    30 ar  
    45    17    47 1   
    46    18    21 ar  
    47    19    20 1   
    48    19    48 1   
    49    19    49 1   
    50    20    29 1   
    51    20    50 1   
    52    20    51 1   
    53    21    52 1   
    54    23    31 1   
    55    23    53 1   
    56    23    56 1   
    57    24    26 1   
    58    24    54 1   
    59    26    27 1   
    60    29    55 1   
    61    31    57 1   
@<TRIPOS>SUBSTRUCTURE
     1 R5S         1 TEMP              0 ****  ****    0 ROOT
