@<TRIPOS>MOLECULE
R5T
   44    45     1     0     0
SMALL
bcc


@<TRIPOS>ATOM
      1 CAA          5.5710    -0.4110     1.0420 c3         1 R5T      -0.109433
      2 CAX          4.9880    -1.3920     0.0330 c3         1 R5T       0.202800
      3 CAB          5.5760    -1.1920    -1.3580 c3         1 R5T      -0.109433
      4 CAC          5.2400    -2.8220     0.4960 c3         1 R5T      -0.109433
      5 OAQ          3.5360    -1.3050     0.0080 os         1 R5T      -0.447900
      6 CAR          2.8930    -0.2080    -0.3700 c          1 R5T       0.770100
      7 OAD          3.3950     0.8310    -0.7490 o          1 R5T      -0.599000
      8 N            1.5560    -0.3820    -0.2820 ns         1 R5T      -0.564900
      9 CA           0.6660     0.6590    -0.7180 c3         1 R5T       0.110000
     10 C            0.9400     1.9480     0.0700 c          1 R5T       0.672100
     11 O            1.1500     1.9510     1.2650 o          1 R5T      -0.551100
     12 NAO          0.8040     3.0500    -0.6870 ns         1 R5T      -0.441400
     13 OAF          1.0820     4.2710    -0.1510 oh         1 R5T      -0.383100
     14 CAT         -0.7720     0.2680    -0.4790 ca         1 R5T      -0.124300
     15 CAJ         -1.1930    -0.2160     0.7570 ca         1 R5T      -0.092000
     16 CAL         -2.5180    -0.5490     0.9750 ca         1 R5T      -0.137500
     17 CAI         -1.7130     0.4280    -1.4880 ca         1 R5T      -0.092000
     18 CAK         -3.0460     0.1170    -1.2770 ca         1 R5T      -0.137500
     19 CAU         -3.4500    -0.3820    -0.0440 ca         1 R5T       0.036800
     20 NAW         -4.7980    -0.7230     0.1760 na         1 R5T       0.169300
     21 NAN         -5.2780    -0.8050     1.4190 nc         1 R5T      -0.515800
     22 CAH         -6.5410    -1.1470     1.2840 cd         1 R5T       0.313200
     23 CAG         -6.8940    -1.2930    -0.0700 cd         1 R5T      -0.306300
     24 CAM         -5.7410    -1.0130    -0.7530 cc         1 R5T      -0.128300
     25 H1           6.6420    -0.5930     1.1370 hc         1 R5T       0.050589
     26 H2           5.4360     0.6260     0.7420 hc         1 R5T       0.050589
     27 H3           5.1240    -0.5500     2.0280 hc         1 R5T       0.050589
     28 H4           6.6380    -1.4400    -1.3320 hc         1 R5T       0.050589
     29 H5           5.1010    -1.8540    -2.0840 hc         1 R5T       0.050589
     30 H6           5.4820    -0.1670    -1.7100 hc         1 R5T       0.050589
     31 H7           4.8030    -3.0070     1.4780 hc         1 R5T       0.050589
     32 H8           4.8270    -3.5470    -0.2080 hc         1 R5T       0.050589
     33 H9           6.3120    -2.9990     0.5690 hc         1 R5T       0.050589
     34 H10          1.1790    -1.2890    -0.0600 hn         1 R5T       0.338500
     35 H11          0.7950     0.8500    -1.7890 h1         1 R5T       0.057700
     36 H12          0.8500     3.0150    -1.6950 hn         1 R5T       0.333500
     37 H13          0.2290     4.6620     0.0770 ho         1 R5T       0.405000
     38 H14         -0.4850    -0.3390     1.5670 ha         1 R5T       0.147000
     39 H15         -2.8270    -0.9350     1.9360 ha         1 R5T       0.154000
     40 H16         -1.4090     0.8080    -2.4550 ha         1 R5T       0.147000
     41 H17         -3.7580     0.2750    -2.0760 ha         1 R5T       0.154000
     42 H18         -7.1640    -1.2760     2.1560 h4         1 R5T       0.041100
     43 H19         -7.8490    -1.5710    -0.4850 ha         1 R5T       0.167000
     44 H20         -5.5280    -1.0190    -1.8090 h4         1 R5T       0.174000
@<TRIPOS>BOND
     1     1     2 1   
     2     1    25 1   
     3     1    26 1   
     4     1    27 1   
     5     2     3 1   
     6     2     4 1   
     7     2     5 1   
     8     3    28 1   
     9     3    29 1   
    10     3    30 1   
    11     4    31 1   
    12     4    32 1   
    13     4    33 1   
    14     5     6 1   
    15     6     7 2   
    16     6     8 1   
    17     8     9 1   
    18     8    34 1   
    19     9    10 1   
    20     9    14 1   
    21     9    35 1   
    22    10    11 2   
    23    10    12 1   
    24    12    13 1   
    25    12    36 1   
    26    13    37 1   
    27    14    15 ar  
    28    14    17 ar  
    29    15    16 ar  
    30    15    38 1   
    31    16    19 ar  
    32    16    39 1   
    33    17    18 ar  
    34    17    40 1   
    35    18    19 ar  
    36    18    41 1   
    37    19    20 1   
    38    20    21 1   
    39    20    24 1   
    40    21    22 2   
    41    22    23 1   
    42    22    42 1   
    43    23    24 2   
    44    23    43 1   
    45    24    44 1   
@<TRIPOS>SUBSTRUCTURE
     1 R5T         1 TEMP              0 ****  ****    0 ROOT
