@<TRIPOS>MOLECULE
R5T
   44    45     1     0     0
SMALL
No Charge or Current Charge


@<TRIPOS>ATOM
      1 CAA          5.8710    -0.5320     0.4300 c3         1 R5T      -0.109433
      2 CAX          4.9130    -1.6110    -0.1370 c3         1 R5T       0.226000
      3 CAB          5.1120    -1.8640    -1.6530 c3         1 R5T      -0.109433
      4 CAC          5.0860    -2.9320     0.6450 c3         1 R5T      -0.109433
      5 OAQ          3.5410    -1.2240     0.1160 os         1 R5T      -0.471100
      6 CAR          2.9890    -0.0870    -0.4070 c          1 R5T       0.654100
      7 OAD          3.5270     0.7330    -1.1320 o          1 R5T      -0.550000
      8 N            1.6960    -0.0110     0.0160 ns         1 R5T      -0.497900
      9 CA           0.7660     1.0760    -0.3380 c3         1 R5T       0.110000
     10 C            0.9940     2.3500     0.5380 c          1 R5T       0.605100
     11 O            1.7370     2.3780     1.5160 o          1 R5T      -0.551100
     12 NAO          0.2530     3.4630     0.1460 ns         1 R5T      -0.374400
     13 OAF          0.5330     4.7780     0.6890 oh         1 R5T      -0.422100
     14 CAT         -0.6760     0.5780    -0.2500 ca         1 R5T      -0.124300
     15 CAJ         -1.2550     0.2760     0.9980 ca         1 R5T      -0.074000
     16 CAL         -2.5820    -0.1830     1.0740 ca         1 R5T      -0.119500
     17 CAI         -1.4390     0.4090    -1.4220 ca         1 R5T      -0.074000
     18 CAK         -2.7660    -0.0510    -1.3460 ca         1 R5T      -0.119500
     19 CAU         -3.3500    -0.3510    -0.0970 ca         1 R5T       0.036800
     20 NAW         -4.6710    -0.8130    -0.0230 na         1 R5T       0.220000
     21 NAN         -5.5310    -0.3180     0.9350 nc         1 R5T      -0.515800
     22 CAH         -6.6480    -0.9600     0.6400 cd         1 R5T       0.247900
     23 CAG         -6.5050    -1.8240    -0.4730 cd         1 R5T      -0.223000
     24 CAM         -5.2150    -1.7280    -0.9150 cc         1 R5T      -0.161000
     25 H1           6.9010    -0.9090     0.4510 hc         1 R5T       0.050589
     26 H2           5.8720     0.3770    -0.1800 hc         1 R5T       0.050589
     27 H3           5.5900    -0.2610     1.4550 hc         1 R5T       0.050589
     28 H4           6.0680    -2.3700    -1.8330 hc         1 R5T       0.050589
     29 H5           4.3130    -2.5020    -2.0500 hc         1 R5T       0.050589
     30 H6           5.1270    -0.9310    -2.2270 hc         1 R5T       0.050589
     31 H7           4.9040    -2.7780     1.7160 hc         1 R5T       0.050589
     32 H8           4.3830    -3.6930     0.2850 hc         1 R5T       0.050589
     33 H9           6.1020    -3.3250     0.5260 hc         1 R5T       0.050589
     34 H10          1.3790    -0.7620     0.6140 hn         1 R5T       0.338500
     35 H11          0.9710     1.3730    -1.3750 h1         1 R5T       0.057700
     36 H12         -0.2570     3.4390    -0.7360 hn         1 R5T       0.333500
     37 H13         -0.3540     5.1060     0.9720 ho         1 R5T       0.444000
     38 H14         -0.6800     0.3950     1.9150 ha         1 R5T       0.129000
     39 H15         -3.0120    -0.4130     2.0460 ha         1 R5T       0.136000
     40 H16         -1.0080     0.6330    -2.3950 ha         1 R5T       0.129000
     41 H17         -3.3410    -0.1660    -2.2620 ha         1 R5T       0.136000
     42 H18         -7.5350    -0.7840     1.2350 h4         1 R5T       0.041100
     43 H19         -7.2850    -2.4480    -0.8960 ha         1 R5T       0.149000
     44 H20         -4.6700    -2.2000    -1.7230 h4         1 R5T       0.156000
@<TRIPOS>BOND
     1     1     2 1   
     2     1    25 1   
     3     1    26 1   
     4     1    27 1   
     5     2     3 1   
     6     2     4 1   
     7     2     5 1   
     8     3    28 1   
     9     3    29 1   
    10     3    30 1   
    11     4    31 1   
    12     4    32 1   
    13     4    33 1   
    14     5     6 1   
    15     6     7 2   
    16     6     8 1   
    17     8     9 1   
    18     8    34 1   
    19     9    10 1   
    20     9    14 1   
    21     9    35 1   
    22    10    11 2   
    23    10    12 1   
    24    12    13 1   
    25    12    36 1   
    26    13    37 1   
    27    14    15 ar  
    28    14    17 ar  
    29    15    16 ar  
    30    15    38 1   
    31    16    19 ar  
    32    16    39 1   
    33    17    18 ar  
    34    17    40 1   
    35    18    19 ar  
    36    18    41 1   
    37    19    20 1   
    38    20    21 1   
    39    20    24 1   
    40    21    22 2   
    41    22    23 1   
    42    22    42 1   
    43    23    24 2   
    44    23    43 1   
    45    24    44 1   
@<TRIPOS>SUBSTRUCTURE
     1 R5T         1 TEMP              0 ****  ****    0 ROOT
