@<TRIPOS>MOLECULE
R5V
   43    44     1     0     0
SMALL
abcg2


@<TRIPOS>ATOM
      1 CAA          5.5250    -1.4340    -0.0620 c3         1 R5V      -0.082100
      2 CAB          4.0180    -1.6720    -0.1000 c3         1 R5V      -0.118000
      3 CAC          3.6010    -2.0440    -1.5290 c3         1 R5V      -0.082100
      4 CAD          3.6610    -2.8110     0.8650 c3         1 R5V      -0.082100
      5 CAE          3.2870    -0.3970     0.3230 c          1 R5V       0.609100
      6 OAF          3.8580     0.6270     0.6670 o          1 R5V      -0.604100
      7 N            1.9420    -0.4560     0.2950 ns         1 R5V      -0.497900
      8 CA           1.1320     0.6810     0.6420 c3         1 R5V       0.094000
      9 C            1.4880     1.8800    -0.2480 c          1 R5V       0.612100
     10 O            1.7210     1.7710    -1.4340 o          1 R5V      -0.565100
     11 NAK          1.4510     3.0430     0.4170 ns         1 R5V      -0.383400
     12 OAL          1.5200     4.2230    -0.2560 oh         1 R5V      -0.418100
     13 CAM         -0.3310     0.3660     0.4430 ca         1 R5V      -0.124300
     14 CAW         -0.8000    -0.1170    -0.7770 ca         1 R5V      -0.076000
     15 CAV         -2.1410    -0.4060    -0.9590 ca         1 R5V      -0.118000
     16 CAN         -1.2400     0.5720     1.4720 ca         1 R5V      -0.076000
     17 CAO         -2.5890     0.3050     1.2980 ca         1 R5V      -0.118000
     18 CAP         -3.0400    -0.1970     0.0830 ca         1 R5V       0.036800
     19 NAQ         -4.4010    -0.5020    -0.0960 na         1 R5V       0.220000
     20 NAU         -4.9230    -0.5690    -1.3230 nc         1 R5V      -0.514800
     21 CAT         -6.1880    -0.8840    -1.1490 cd         1 R5V       0.247900
     22 CAS         -6.5000    -1.0290     0.2160 cd         1 R5V      -0.223000
     23 CAR         -5.3200    -0.7760     0.8620 cc         1 R5V      -0.161000
     24 H1           5.8290    -0.6430    -0.7480 hc         1 R5V       0.041700
     25 H2           5.8710    -1.1680     0.9370 hc         1 R5V       0.041700
     26 H3           6.0430    -2.3470    -0.3600 hc         1 R5V       0.041700
     27 H4           4.1750    -2.9090    -1.8640 hc         1 R5V       0.041700
     28 H5           2.5450    -2.3080    -1.6060 hc         1 R5V       0.041700
     29 H6           3.7910    -1.2260    -2.2250 hc         1 R5V       0.041700
     30 H7           3.9450    -2.5670     1.8900 hc         1 R5V       0.041700
     31 H8           2.5960    -3.0500     0.8620 hc         1 R5V       0.041700
     32 H9           4.1950    -3.7170     0.5770 hc         1 R5V       0.041700
     33 H10          1.4770    -1.3130     0.0460 hn         1 R5V       0.328500
     34 H11          1.2900     0.9470     1.6920 h1         1 R5V       0.062700
     35 H12          1.2260     3.1170     1.3980 hn         1 R5V       0.338500
     36 H13          2.4520     4.4760    -0.2680 ho         1 R5V       0.445000
     37 H14         -0.1170    -0.2720    -1.6030 ha         1 R5V       0.128000
     38 H15         -2.4870    -0.7930    -1.9060 ha         1 R5V       0.136500
     39 H16         -0.8990     0.9530     2.4270 ha         1 R5V       0.128000
     40 H17         -3.2760     0.4970     2.1110 ha         1 R5V       0.136500
     41 H18         -6.8410    -0.9980    -2.0010 h4         1 R5V       0.041100
     42 H19         -7.4470    -1.2890     0.6590 ha         1 R5V       0.149000
     43 H20         -5.0720    -0.7920     1.9100 h4         1 R5V       0.156000
@<TRIPOS>BOND
     1     1     2 1   
     2     1    24 1   
     3     1    25 1   
     4     1    26 1   
     5     2     3 1   
     6     2     4 1   
     7     2     5 1   
     8     3    27 1   
     9     3    28 1   
    10     3    29 1   
    11     4    30 1   
    12     4    31 1   
    13     4    32 1   
    14     5     6 2   
    15     5     7 1   
    16     7     8 1   
    17     7    33 1   
    18     8     9 1   
    19     8    13 1   
    20     8    34 1   
    21     9    10 2   
    22     9    11 1   
    23    11    12 1   
    24    11    35 1   
    25    12    36 1   
    26    13    14 ar  
    27    13    16 ar  
    28    14    15 ar  
    29    14    37 1   
    30    15    18 ar  
    31    15    38 1   
    32    16    17 ar  
    33    16    39 1   
    34    17    18 ar  
    35    17    40 1   
    36    18    19 1   
    37    19    20 1   
    38    19    23 1   
    39    20    21 2   
    40    21    22 1   
    41    21    41 1   
    42    22    23 2   
    43    22    42 1   
    44    23    43 1   
@<TRIPOS>SUBSTRUCTURE
     1 R5V         1 TEMP              0 ****  ****    0 ROOT
