@<TRIPOS>MOLECULE
R5V
   43    44     1     0     0
SMALL
No Charge or Current Charge


@<TRIPOS>ATOM
      1 CAA          5.3300    -1.5370    -0.6070 c3         1 R5V      -0.082100
      2 CAB          4.0100    -1.9270     0.1120 c3         1 R5V      -0.118000
      3 CAC          3.1270    -2.7410    -0.8830 c3         1 R5V      -0.082100
      4 CAD          4.3290    -2.8260     1.3370 c3         1 R5V      -0.082100
      5 CAE          3.3110    -0.6220     0.6160 c          1 R5V       0.609100
      6 OAF          3.8490     0.1430     1.4060 o          1 R5V      -0.604100
      7 N            2.0470    -0.3620     0.1330 ns         1 R5V      -0.497900
      8 CA           1.2420     0.8220     0.4890 c3         1 R5V       0.094000
      9 C            1.6710     2.0870    -0.3230 c          1 R5V       0.612100
     10 O            2.4750     2.0580    -1.2520 o          1 R5V      -0.565100
     11 NAK          1.0520     3.2690     0.0780 ns         1 R5V      -0.383400
     12 OAL          1.1270     4.4650    -0.7360 oh         1 R5V      -0.418100
     13 CAM         -0.2420     0.5100     0.3090 ca         1 R5V      -0.124300
     14 CAW         -0.7870     0.3350    -0.9790 ca         1 R5V      -0.076000
     15 CAV         -2.1520     0.0450    -1.1390 ca         1 R5V      -0.118000
     16 CAN         -1.0810     0.3840     1.4330 ca         1 R5V      -0.076000
     17 CAO         -2.4470     0.0930     1.2720 ca         1 R5V      -0.118000
     18 CAP         -2.9960    -0.0790    -0.0160 ca         1 R5V       0.036800
     19 NAQ         -4.3570    -0.3750    -0.1750 na         1 R5V       0.220000
     20 NAU         -5.1000     0.2620    -1.1470 nc         1 R5V      -0.514800
     21 CAT         -6.2990    -0.2520    -0.9370 cd         1 R5V       0.247900
     22 CAS         -6.3190    -1.1740     0.1370 cd         1 R5V      -0.223000
     23 CAR         -5.0520    -1.2540     0.6450 cc         1 R5V      -0.161000
     24 H1           5.1280    -0.8830    -1.4640 hc         1 R5V       0.041700
     25 H2           6.0070    -1.0030     0.0720 hc         1 R5V       0.041700
     26 H3           5.8570    -2.4260    -0.9740 hc         1 R5V       0.041700
     27 H4           3.6490    -3.6480    -1.2130 hc         1 R5V       0.041700
     28 H5           2.1860    -3.0580    -0.4150 hc         1 R5V       0.041700
     29 H6           2.8910    -2.1540    -1.7800 hc         1 R5V       0.041700
     30 H7           4.9910    -2.3110     2.0440 hc         1 R5V       0.041700
     31 H8           3.4090    -3.0960     1.8720 hc         1 R5V       0.041700
     32 H9           4.8260    -3.7540     1.0270 hc         1 R5V       0.041700
     33 H10          1.6570    -1.0320    -0.5170 hn         1 R5V       0.328500
     34 H11          1.4240     1.0560     1.5460 h1         1 R5V       0.062700
     35 H12          0.2720     3.2190     0.7330 hn         1 R5V       0.338500
     36 H13          1.3860     5.1690    -0.0940 ho         1 R5V       0.445000
     37 H14         -0.1540     0.4230    -1.8610 ha         1 R5V       0.128000
     38 H15         -2.5550    -0.0900    -2.1410 ha         1 R5V       0.136500
     39 H16         -0.6770     0.5110     2.4360 ha         1 R5V       0.128000
     40 H17         -3.0790     0.0090     2.1530 ha         1 R5V       0.136500
     41 H18         -7.1260     0.0570    -1.5640 h4         1 R5V       0.041100
     42 H19         -7.1890    -1.7160     0.4920 ha         1 R5V       0.149000
     43 H20         -4.6100    -1.8240     1.4530 h4         1 R5V       0.156000
@<TRIPOS>BOND
     1     1     2 1   
     2     1    24 1   
     3     1    25 1   
     4     1    26 1   
     5     2     3 1   
     6     2     4 1   
     7     2     5 1   
     8     3    27 1   
     9     3    28 1   
    10     3    29 1   
    11     4    30 1   
    12     4    31 1   
    13     4    32 1   
    14     5     6 2   
    15     5     7 1   
    16     7     8 1   
    17     7    33 1   
    18     8     9 1   
    19     8    13 1   
    20     8    34 1   
    21     9    10 2   
    22     9    11 1   
    23    11    12 1   
    24    11    35 1   
    25    12    36 1   
    26    13    14 ar  
    27    13    16 ar  
    28    14    15 ar  
    29    14    37 1   
    30    15    18 ar  
    31    15    38 1   
    32    16    17 ar  
    33    16    39 1   
    34    17    18 ar  
    35    17    40 1   
    36    18    19 1   
    37    19    20 1   
    38    19    23 1   
    39    20    21 2   
    40    21    22 1   
    41    21    41 1   
    42    22    23 2   
    43    22    42 1   
    44    23    43 1   
@<TRIPOS>SUBSTRUCTURE
     1 R5V         1 TEMP              0 ****  ****    0 ROOT
