@<TRIPOS>MOLECULE
R5W
   40    42     1     0     0
SMALL
No Charge or Current Charge


@<TRIPOS>ATOM
      1 N1          22.6730    50.0600    -0.3200 nc         1 R5W      -0.121000
      2 N3          25.2110    52.3790    -6.8590 n5         1 R5W      -0.610200
      3 C4          24.0480    50.5850    -4.3630 c          1 R5W       0.603100
      4 C5          22.8840    51.1000    -5.2180 c3         1 R5W      -0.161400
      5 C6          22.9600    52.6320    -5.5040 c3         1 R5W      -0.043400
      6 C7          23.9510    53.1180    -6.5860 cx         1 R5W       0.257400
      7 C8          23.9700    54.6490    -6.6990 c3         1 R5W      -0.062400
      8 C10         22.8000    56.7240    -7.4870 c1         1 R5W      -0.151100
      9 C13         26.5470    49.0830    -0.8710 cc         1 R5W      -0.111000
     10 O           25.1450    50.3580    -4.8510 o          1 R5W      -0.593100
     11 N4          24.1670    52.3040    -7.8140 n5         1 R5W      -0.610200
     12 C9          22.6890    55.2690    -7.3120 c3         1 R5W       0.007700
     13 C11         22.9130    57.9220    -7.6120 c1         1 R5W      -0.236000
     14 N2          23.7340    50.3740    -3.0330 ns         1 R5W      -0.390100
     15 C3          24.5160    49.9120    -1.9830 cd         1 R5W       0.099600
     16 C12         25.8500    49.5480    -2.0490 cc         1 R5W      -0.136000
     17 C14         25.9470    48.9700     0.3790 cd         1 R5W      -0.126000
     18 N5          24.6010    49.3490     0.3910 na         1 R5W       0.020200
     19 C1          23.7680    49.3420     1.4690 cd         1 R5W       0.332800
     20 C           24.0900    48.9310     2.8800 c3         1 R5W      -0.101400
     21 C2          23.9160    49.7890    -0.6910 cd         1 R5W      -0.124000
     22 N           22.5780    49.7760     1.0520 nc         1 R5W      -0.355700
     23 H1          25.2440    51.5180    -6.2730 hn         1 R5W       0.423000
     24 H2          21.9430    50.9210    -4.6840 hc         1 R5W       0.081200
     25 H3          22.8630    50.5530    -6.1670 hc         1 R5W       0.081200
     26 H4          23.1650    53.1520    -4.5600 hc         1 R5W       0.060700
     27 H5          21.9520    52.9440    -5.8000 hc         1 R5W       0.060700
     28 H6          24.8290    54.9540    -7.3100 hc         1 R5W       0.066700
     29 H7          24.1420    55.0860    -5.7080 hc         1 R5W       0.066700
     30 H8          27.5930    48.8110    -0.9810 ha         1 R5W       0.136000
     31 H9          24.3670    52.9230    -8.6210 hn         1 R5W       0.423000
     32 H10         21.8230    55.0640    -6.6720 hc         1 R5W       0.057700
     33 H11         22.4850    54.8110    -8.2880 hc         1 R5W       0.057700
     34 H12         23.0270    58.9830    -7.7210 ha         1 R5W       0.255000
     35 H13         22.7740    50.6040    -2.8110 hn         1 R5W       0.347500
     36 H14         26.4160    49.5980    -2.9710 ha         1 R5W       0.162000
     37 H15         26.4200    48.6280     1.2930 h4         1 R5W       0.150000
     38 H16         23.2160    49.0320     3.5330 hc         1 R5W       0.061367
     39 H17         24.4180    47.8860     2.9160 hc         1 R5W       0.061367
     40 H18         24.8920    49.5540     3.2940 hc         1 R5W       0.061367
@<TRIPOS>BOND
     1     1    21 2   
     2     1    22 1   
     3     2     6 1   
     4     2    11 1   
     5     2    23 1   
     6     3     4 1   
     7     3    10 2   
     8     3    14 1   
     9     4     5 1   
    10     4    24 1   
    11     4    25 1   
    12     5     6 1   
    13     5    26 1   
    14     5    27 1   
    15     6     7 1   
    16     6    11 1   
    17     7    12 1   
    18     7    28 1   
    19     7    29 1   
    20     8    12 1   
    21     8    13 3   
    22     9    16 1   
    23     9    17 2   
    24     9    30 1   
    25    11    31 1   
    26    12    32 1   
    27    12    33 1   
    28    13    34 1   
    29    14    15 1   
    30    14    35 1   
    31    15    16 2   
    32    15    21 1   
    33    16    36 1   
    34    17    18 1   
    35    17    37 1   
    36    18    19 1   
    37    18    21 1   
    38    19    20 1   
    39    19    22 2   
    40    20    38 1   
    41    20    39 1   
    42    20    40 1   
@<TRIPOS>SUBSTRUCTURE
     1 R5W         1 TEMP              0 ****  ****    0 ROOT
