@<TRIPOS>MOLECULE
R5W
   40    42     1     0     0
SMALL
abcg2


@<TRIPOS>ATOM
      1 N1          22.5960    49.5480    -0.2570 nc         1 R5W      -0.121000
      2 N3          25.0090    52.3830    -6.8680 n5         1 R5W      -0.610200
      3 C4          24.1830    51.5290    -3.6440 c          1 R5W       0.603100
      4 C5          23.0340    52.0370    -4.4890 c3         1 R5W      -0.161400
      5 C6          23.3060    53.3650    -5.2050 c3         1 R5W      -0.043400
      6 C7          23.9170    53.2870    -6.5950 cx         1 R5W       0.257400
      7 C8          24.0090    54.6130    -7.3220 c3         1 R5W      -0.062400
      8 C10         22.7520    56.4020    -8.5120 c1         1 R5W      -0.151100
      9 C13         26.6390    49.4140    -0.5380 cc         1 R5W      -0.111000
     10 O           25.3590    51.6710    -3.9620 o          1 R5W      -0.593100
     11 N4          23.6240    52.0990    -7.3720 n5         1 R5W      -0.610200
     12 C9          22.6360    55.1750    -7.7340 c3         1 R5W       0.007700
     13 C11         22.8700    57.4110    -9.1560 c1         1 R5W      -0.236000
     14 N2          23.7990    50.8700    -2.5120 ns         1 R5W      -0.390100
     15 C3          24.6020    50.2220    -1.5760 cd         1 R5W       0.099600
     16 C12         25.9700    50.1190    -1.5790 cc         1 R5W      -0.136000
     17 C14         25.9630    48.8260     0.4790 cd         1 R5W      -0.126000
     18 N5          24.5900    48.9310     0.4780 na         1 R5W       0.020200
     19 C1          23.6280    48.4610     1.3430 cd         1 R5W       0.332800
     20 C           23.9280    47.6710     2.5590 c3         1 R5W      -0.101400
     21 C2          23.8920    49.6040    -0.5050 cd         1 R5W      -0.124000
     22 N           22.4460    48.8290     0.9040 nc         1 R5W      -0.355700
     23 H1          25.1420    51.7780    -6.0590 hn         1 R5W       0.423000
     24 H2          22.1430    52.1350    -3.8690 hc         1 R5W       0.081200
     25 H3          22.8140    51.2590    -5.2270 hc         1 R5W       0.081200
     26 H4          23.9480    54.0020    -4.5910 hc         1 R5W       0.060700
     27 H5          22.3530    53.8880    -5.2950 hc         1 R5W       0.060700
     28 H6          24.6230    54.4690    -8.2130 hc         1 R5W       0.066700
     29 H7          24.5230    55.3370    -6.6840 hc         1 R5W       0.066700
     30 H8          27.7170    49.3450    -0.5580 ha         1 R5W       0.136000
     31 H9          23.6520    52.3320    -8.3630 hn         1 R5W       0.423000
     32 H10         22.0250    55.3740    -6.8510 hc         1 R5W       0.057700
     33 H11         22.0970    54.4280    -8.3250 hc         1 R5W       0.057700
     34 H12         22.9640    58.3040    -9.7270 ha         1 R5W       0.255000
     35 H13         22.8080    50.8160    -2.3250 hn         1 R5W       0.347500
     36 H14         26.5420    50.5740    -2.3690 ha         1 R5W       0.162000
     37 H15         26.4150    48.2810     1.2930 h4         1 R5W       0.150000
     38 H16         22.9970    47.4260     3.0640 hc         1 R5W       0.061367
     39 H17         24.4480    46.7440     2.3060 hc         1 R5W       0.061367
     40 H18         24.5660    48.2350     3.2440 hc         1 R5W       0.061367
@<TRIPOS>BOND
     1     1    21 2   
     2     1    22 1   
     3     2     6 1   
     4     2    11 1   
     5     2    23 1   
     6     3     4 1   
     7     3    10 2   
     8     3    14 1   
     9     4     5 1   
    10     4    24 1   
    11     4    25 1   
    12     5     6 1   
    13     5    26 1   
    14     5    27 1   
    15     6     7 1   
    16     6    11 1   
    17     7    12 1   
    18     7    28 1   
    19     7    29 1   
    20     8    12 1   
    21     8    13 3   
    22     9    16 1   
    23     9    17 2   
    24     9    30 1   
    25    11    31 1   
    26    12    32 1   
    27    12    33 1   
    28    13    34 1   
    29    14    15 1   
    30    14    35 1   
    31    15    16 2   
    32    15    21 1   
    33    16    36 1   
    34    17    18 1   
    35    17    37 1   
    36    18    19 1   
    37    18    21 1   
    38    19    20 1   
    39    19    22 2   
    40    20    38 1   
    41    20    39 1   
    42    20    40 1   
@<TRIPOS>SUBSTRUCTURE
     1 R5W         1 TEMP              0 ****  ****    0 ROOT
