@<TRIPOS>MOLECULE
R5X
   43    45     1     0     0
SMALL
No Charge or Current Charge


@<TRIPOS>ATOM
      1 C10         -6.4090     2.4140    -0.6260 cc         1 R5X      -0.223000
      2 C21          4.9000     0.5890    -0.6530 ca         1 R5X      -0.124000
      3 C22          5.7800     1.6500    -0.3890 ca         1 R5X       0.289000
      4 C24          3.9960     2.8360     0.7570 ca         1 R5X      -0.077000
      5 C01         -2.8760     0.2690     1.0200 ca         1 R5X      -0.118000
      6 C02         -1.6020    -0.3230     0.9860 ca         1 R5X      -0.076500
      7 C03         -1.0850    -0.8300    -0.2240 ca         1 R5X      -0.120300
      8 C04         -1.8580    -0.7320    -1.3980 ca         1 R5X      -0.076500
      9 C05         -3.1320    -0.1400    -1.3620 ca         1 R5X      -0.118000
     10 C06         -3.6480     0.3670    -0.1530 ca         1 R5X       0.034800
     11 N07         -4.9140     0.9570    -0.1110 na         1 R5X       0.219000
     12 N08         -5.9720     0.6070     0.7100 nd         1 R5X      -0.514800
     13 C09         -6.8640     1.5140     0.3570 cc         1 R5X       0.247900
     14 C11         -5.1270     2.0630    -0.9340 cd         1 R5X      -0.161000
     15 C12          0.3000    -1.4720    -0.2680 c3         1 R5X       0.093000
     16 N13          1.3370    -0.4400    -0.0710 ns         1 R5X      -0.494900
     17 C14          0.4320    -2.6370     0.7640 c          1 R5X       0.602100
     18 O15          1.1860    -2.6030     1.7330 o          1 R5X      -0.554100
     19 N16         -0.4120    -3.7200     0.5260 ns         1 R5X      -0.367400
     20 O17         -0.2410    -4.9730     1.2350 oh         1 R5X      -0.426100
     21 C18          2.6330    -0.5390    -0.5240 c          1 R5X       0.614700
     22 C19          3.5530     0.6300    -0.2180 ca         1 R5X      -0.103600
     23 O20          3.0110    -1.5250    -1.1430 o          1 R5X      -0.602100
     24 C23          5.3270     2.7730     0.3160 ca         1 R5X      -0.162000
     25 C25          3.1140     1.7750     0.4950 ca         1 R5X      -0.138000
     26 H1          -6.9880     3.2330    -1.0410 ha         1 R5X       0.149000
     27 H2           5.2650    -0.2750    -1.2020 ha         1 R5X       0.138000
     28 H3           3.6470     3.7090     1.3050 ha         1 R5X       0.113000
     29 H4          -3.2650     0.6550     1.9600 ha         1 R5X       0.136000
     30 H5          -1.0190    -0.3870     1.9030 ha         1 R5X       0.128500
     31 H6          -1.4730    -1.1140    -2.3420 ha         1 R5X       0.128500
     32 H7          -3.7200    -0.0760    -2.2750 ha         1 R5X       0.136000
     33 H8          -7.8360     1.5030     0.8340 h4         1 R5X       0.041100
     34 H9          -4.3940     2.4750    -1.6190 h4         1 R5X       0.156000
     35 H10          0.4470    -1.9190    -1.2600 h1         1 R5X       0.064700
     36 H11          1.0900     0.4000     0.4340 hn         1 R5X       0.332500
     37 H12         -0.9340    -3.7650    -0.3480 hn         1 R5X       0.332500
     38 H13         -1.1480    -5.1780     1.5650 ho         1 R5X       0.445000
     39 H14          6.0030     3.5980     0.5230 ha         1 R5X       0.114000
     40 H15          2.0910     1.8600     0.8520 ha         1 R5X       0.110000
     41 H16          7.4540     0.7280    -1.2050 hn         1 R5X       0.453500
     42 H17          7.7490     2.2980    -0.5100 hn         1 R5X       0.453500
     43 N26          7.0810     1.5940    -0.8170 nv         1 R5X      -1.075000
@<TRIPOS>BOND
     1     1    13 1   
     2     1    14 2   
     3     1    26 1   
     4     2     3 ar  
     5     2    22 ar  
     6     2    27 1   
     7     3    24 ar  
     8     3    43 1   
     9     4    24 ar  
    10     4    25 ar  
    11     4    28 1   
    12     5     6 ar  
    13     5    10 ar  
    14     5    29 1   
    15     6     7 ar  
    16     6    30 1   
    17     7     8 ar  
    18     7    15 1   
    19     8     9 ar  
    20     8    31 1   
    21     9    10 ar  
    22     9    32 1   
    23    10    11 1   
    24    11    12 1   
    25    11    14 1   
    26    12    13 2   
    27    13    33 1   
    28    14    34 1   
    29    15    16 1   
    30    15    17 1   
    31    15    35 1   
    32    16    21 1   
    33    16    36 1   
    34    17    18 2   
    35    17    19 1   
    36    19    20 1   
    37    19    37 1   
    38    20    38 1   
    39    21    22 1   
    40    21    23 2   
    41    22    25 ar  
    42    24    39 1   
    43    25    40 1   
    44    41    43 1   
    45    42    43 1   
@<TRIPOS>SUBSTRUCTURE
     1 R5X         1 TEMP              0 ****  ****    0 ROOT
