@<TRIPOS>MOLECULE
R5X
   43    45     1     0     0
SMALL
bcc


@<TRIPOS>ATOM
      1 C10         -6.9530     1.8990    -0.0920 cc         1 R5X      -0.306300
      2 C21          4.8290     0.2630     0.0830 ca         1 R5X      -0.142000
      3 C22          5.8120     1.2340     0.2950 ca         1 R5X       0.150600
      4 C24          4.2000     2.9230    -0.3340 ca         1 R5X      -0.095000
      5 C01         -2.7170     0.6030     0.9720 ca         1 R5X      -0.136000
      6 C02         -1.4550     0.0740     0.7660 ca         1 R5X      -0.094500
      7 C03         -1.1330    -0.5620    -0.4300 ca         1 R5X      -0.120300
      8 C04         -2.1110    -0.6750    -1.4100 ca         1 R5X      -0.094500
      9 C05         -3.3840    -0.1670    -1.2100 ca         1 R5X      -0.136000
     10 C06         -3.6860     0.4840    -0.0200 ca         1 R5X       0.034800
     11 N07         -4.9660     1.0290     0.1840 na         1 R5X       0.168300
     12 N08         -5.4260     1.2290     1.4220 nd         1 R5X      -0.514800
     13 C09         -6.6240     1.7520     1.2690 cc         1 R5X       0.313200
     14 C11         -5.8560     1.4230    -0.7590 cd         1 R5X      -0.128300
     15 C12          0.2390    -1.1460    -0.6620 c3         1 R5X       0.093000
     16 N13          1.2610    -0.1620    -0.4140 ns         1 R5X      -0.561900
     17 C14          0.4250    -2.3490     0.2740 c          1 R5X       0.669100
     18 O15          0.6650    -2.2230     1.4560 o          1 R5X      -0.554100
     19 N16          0.1800    -3.5200    -0.3390 ns         1 R5X      -0.434400
     20 O17          0.3940    -4.6810     0.3420 oh         1 R5X      -0.387100
     21 C18          2.5620    -0.4820    -0.5280 c          1 R5X       0.681700
     22 C19          3.5460     0.6190    -0.3170 ca         1 R5X      -0.103600
     23 O20          2.9110    -1.6250    -0.7920 o          1 R5X      -0.602100
     24 C23          5.4750     2.5760     0.0790 ca         1 R5X      -0.180000
     25 C25          3.2240     1.9570    -0.5340 ca         1 R5X      -0.156000
     26 H1          -7.8550     2.3020    -0.5190 ha         1 R5X       0.167000
     27 H2           5.0710    -0.7810     0.2390 ha         1 R5X       0.156000
     28 H3           3.9640     3.9650    -0.5050 ha         1 R5X       0.131000
     29 H4          -2.9480     1.1080     1.8990 ha         1 R5X       0.154000
     30 H5          -0.7180     0.1680     1.5540 ha         1 R5X       0.146500
     31 H6          -1.8850    -1.1720    -2.3450 ha         1 R5X       0.146500
     32 H7          -4.1310    -0.2940    -1.9810 ha         1 R5X       0.154000
     33 H8          -7.2200     2.0030     2.1330 h4         1 R5X       0.041100
     34 H9          -5.6430     1.3600    -1.8130 h4         1 R5X       0.174000
     35 H10          0.2980    -1.4790    -1.7030 h1         1 R5X       0.064700
     36 H11          0.9810     0.7640    -0.1350 hn         1 R5X       0.332500
     37 H12          0.2410    -3.6120    -1.3430 hn         1 R5X       0.332500
     38 H13         -0.4810    -5.0050     0.5950 ho         1 R5X       0.406000
     39 H14          6.2200     3.3480     0.2330 ha         1 R5X       0.132000
     40 H15          2.2450     2.2570    -0.8830 ha         1 R5X       0.128000
     41 H16          7.1870    -0.0150     1.1170 hn         1 R5X       0.398300
     42 H17          7.6490     1.5900     1.0860 hn         1 R5X       0.398300
     43 N26          7.0910     0.8730     0.6510 nv         1 R5X      -0.826200
@<TRIPOS>BOND
     1     1    13 1   
     2     1    14 2   
     3     1    26 1   
     4     2     3 ar  
     5     2    22 ar  
     6     2    27 1   
     7     3    24 ar  
     8     3    43 1   
     9     4    24 ar  
    10     4    25 ar  
    11     4    28 1   
    12     5     6 ar  
    13     5    10 ar  
    14     5    29 1   
    15     6     7 ar  
    16     6    30 1   
    17     7     8 ar  
    18     7    15 1   
    19     8     9 ar  
    20     8    31 1   
    21     9    10 ar  
    22     9    32 1   
    23    10    11 1   
    24    11    12 1   
    25    11    14 1   
    26    12    13 2   
    27    13    33 1   
    28    14    34 1   
    29    15    16 1   
    30    15    17 1   
    31    15    35 1   
    32    16    21 1   
    33    16    36 1   
    34    17    18 2   
    35    17    19 1   
    36    19    20 1   
    37    19    37 1   
    38    20    38 1   
    39    21    22 1   
    40    21    23 2   
    41    22    25 ar  
    42    24    39 1   
    43    25    40 1   
    44    41    43 1   
    45    42    43 1   
@<TRIPOS>SUBSTRUCTURE
     1 R5X         1 TEMP              0 ****  ****    0 ROOT
