@<TRIPOS>MOLECULE
R5Y
   58    62     1     0     0
SMALL
bcc


@<TRIPOS>ATOM
      1 C10         45.0860    -2.5020   -33.2650 ca         1 R5Y      -0.175000
      2 C13         44.6470    -0.6810   -36.5900 c6         1 R5Y      -0.007400
      3 C15         43.3230     0.8220   -38.1160 c6         1 R5Y       0.147800
      4 C17         45.4680     0.0240   -38.8650 c6         1 R5Y       0.147800
      5 C20         44.0020    -3.9830   -34.8050 ca         1 R5Y      -0.175000
      6 C22         46.0640    -4.1440   -29.5340 ca         1 R5Y       0.651800
      7 C24         47.4500    -2.9030   -27.7620 cc         1 R5Y      -0.095300
      8 C26         48.7510    -1.0990   -26.6440 c3         1 R5Y       0.053300
      9 C28         46.8180     0.4410   -26.1850 c2         1 R5Y      -0.174200
     10 C02         45.3640    -7.0760   -27.5110 cc         1 R5Y      -0.126100
     11 C03         45.9980    -5.8720   -27.5290 cd         1 R5Y      -0.148200
     12 C04         45.7520    -5.3040   -28.8210 ca         1 R5Y      -0.368400
     13 C05         44.9560    -6.2340   -29.5270 ca         1 R5Y       0.504800
     14 C07         44.8690    -4.9470   -31.3310 ca         1 R5Y       0.941900
     15 C09         44.5210    -3.7520   -33.5240 ca         1 R5Y       0.188600
     16 C11         45.1210    -1.5360   -34.2630 ca         1 R5Y      -0.094500
     17 C12         44.6080    -1.7540   -35.5350 ca         1 R5Y      -0.110300
     18 C14         43.2450    -0.2540   -37.0370 c6         1 R5Y      -0.108400
     19 C18         45.4760    -1.0840   -37.8130 c6         1 R5Y      -0.108400
     20 C19         44.0460    -3.0070   -35.7820 ca         1 R5Y      -0.094500
     21 C23         46.8630    -3.0510   -29.0080 cd         1 R5Y      -0.353800
     22 C27         47.7600    -0.5670   -25.6090 c3         1 R5Y      -0.063200
     23 C29         45.5030     0.2780   -26.2690 c2         1 R5Y      -0.199000
     24 C31         47.2200    -1.8640   -29.6840 cd         1 R5Y       0.357200
     25 N01         44.7370    -7.2930   -28.7160 na         1 R5Y      -0.280100
     26 N06         44.5050    -6.0940   -30.7610 nb         1 R5Y      -0.807000
     27 N08         44.4090    -4.7920   -32.6100 nu         1 R5Y      -0.739300
     28 N16         44.1370     0.4540   -39.2640 n7         1 R5Y      -0.790200
     29 N21         45.6140    -3.9900   -30.7800 nb         1 R5Y      -0.791000
     30 N25         48.0810    -1.7240   -27.7660 na         1 R5Y       0.116400
     31 N30         47.9460    -1.0760   -28.9230 nc         1 R5Y      -0.529800
     32 H1          45.4930    -2.2810   -32.2930 ha         1 R5Y       0.146000
     33 H2          45.1280     0.2000   -36.1460 hc         1 R5Y       0.050700
     34 H3          43.7460     1.7350   -37.6820 h1         1 R5Y       0.051200
     35 H4          42.3210     1.0810   -38.4660 h1         1 R5Y       0.051200
     36 H5          46.0140    -0.2970   -39.7550 h1         1 R5Y       0.051200
     37 H6          46.0020     0.8960   -38.4710 h1         1 R5Y       0.051200
     38 H7          43.5570    -4.9450   -35.0360 ha         1 R5Y       0.146000
     39 H8          47.4670    -3.5360   -26.8900 h4         1 R5Y       0.173000
     40 H9          49.4190    -1.8270   -26.1850 h1         1 R5Y       0.069700
     41 H10         49.3620    -0.2940   -27.0490 h1         1 R5Y       0.069700
     42 H11         47.2670     1.3550   -26.5660 ha         1 R5Y       0.125000
     43 H12         45.3040    -7.8100   -26.7250 h4         1 R5Y       0.165000
     44 H13         46.5630    -5.4640   -26.7090 ha         1 R5Y       0.149000
     45 H14         45.5640    -0.5740   -34.0280 ha         1 R5Y       0.127500
     46 H15         42.6750     0.1160   -36.1800 hc         1 R5Y       0.045450
     47 H16         42.6990    -1.1210   -37.4250 hc         1 R5Y       0.045450
     48 H17         45.0700    -2.0020   -38.2520 hc         1 R5Y       0.045450
     49 H18         46.5040    -1.3070   -37.5130 hc         1 R5Y       0.045450
     50 H19         43.6310    -3.2350   -36.7570 ha         1 R5Y       0.127500
     51 H20         47.2060    -1.3980   -25.1680 hc         1 R5Y       0.053200
     52 H21         48.3490    -0.1150   -24.8050 hc         1 R5Y       0.053200
     53 H22         44.8640     1.0360   -26.7010 ha         1 R5Y       0.114500
     54 H23         45.0180    -0.6210   -25.9070 ha         1 R5Y       0.114500
     55 H24         46.9740    -1.5740   -30.6930 h4         1 R5Y       0.051100
     56 H25         44.1980    -8.1090   -28.9560 hn         1 R5Y       0.310700
     57 H26         43.8910    -5.5930   -32.9360 hn         1 R5Y       0.451800
     58 H27         43.6830    -0.3090   -39.7540 hn         1 R5Y       0.344800
@<TRIPOS>BOND
     1     1    15 ar  
     2     1    16 ar  
     3     1    32 1   
     4     2    17 1   
     5     2    18 1   
     6     2    19 1   
     7     2    33 1   
     8     3    18 1   
     9     3    28 1   
    10     3    34 1   
    11     3    35 1   
    12     4    19 1   
    13     4    28 1   
    14     4    36 1   
    15     4    37 1   
    16     5    15 ar  
    17     5    20 ar  
    18     5    38 1   
    19     6    12 ar  
    20     6    21 1   
    21     6    29 ar  
    22     7    21 2   
    23     7    30 1   
    24     7    39 1   
    25     8    22 1   
    26     8    30 1   
    27     8    40 1   
    28     8    41 1   
    29     9    22 1   
    30     9    23 2   
    31     9    42 1   
    32    10    11 2   
    33    10    25 1   
    34    10    43 1   
    35    11    12 1   
    36    11    44 1   
    37    12    13 ar  
    38    13    25 1   
    39    13    26 ar  
    40    14    26 ar  
    41    14    27 1   
    42    14    29 ar  
    43    15    27 1   
    44    16    17 ar  
    45    16    45 1   
    46    17    20 ar  
    47    18    46 1   
    48    18    47 1   
    49    19    48 1   
    50    19    49 1   
    51    20    50 1   
    52    21    24 1   
    53    22    51 1   
    54    22    52 1   
    55    23    53 1   
    56    23    54 1   
    57    24    31 2   
    58    24    55 1   
    59    25    56 1   
    60    27    57 1   
    61    28    58 1   
    62    30    31 1   
@<TRIPOS>SUBSTRUCTURE
     1 R5Y         1 TEMP              0 ****  ****    0 ROOT
