@<TRIPOS>MOLECULE
R5Y
   58    62     1     0     0
SMALL
No Charge or Current Charge


@<TRIPOS>ATOM
      1 C10         44.4240    -2.3330   -33.1980 ca         1 R5Y      -0.157000
      2 C13         44.4470    -0.6150   -36.6420 c6         1 R5Y      -0.007400
      3 C15         43.2320     0.5460   -38.5700 c6         1 R5Y       0.147800
      4 C17         45.6850     0.2920   -38.6880 c6         1 R5Y       0.147800
      5 C20         44.1760    -4.0430   -34.8950 ca         1 R5Y      -0.157000
      6 C22         46.0230    -4.1110   -29.5520 ca         1 R5Y       0.323500
      7 C24         47.4350    -2.8800   -27.7880 cc         1 R5Y      -0.128000
      8 C26         48.9640    -1.0890   -26.7910 c3         1 R5Y       0.082600
      9 C28         47.0210     0.3040   -25.8880 c2         1 R5Y      -0.224200
     10 C02         45.2560    -6.9970   -27.3300 cc         1 R5Y      -0.176100
     11 C03         45.9300    -5.8070   -27.5340 cd         1 R5Y      -0.198200
     12 C04         45.6180    -5.2630   -28.8390 ca         1 R5Y      -0.237800
     13 C05         44.7520    -6.1580   -29.4230 ca         1 R5Y       0.176500
     14 C07         44.6950    -4.8560   -31.2860 ca         1 R5Y       0.415900
     15 C09         44.2860    -3.6920   -33.5410 ca         1 R5Y       0.327000
     16 C11         44.4790    -1.3460   -34.1980 ca         1 R5Y      -0.076500
     17 C12         44.3870    -1.7020   -35.5570 ca         1 R5Y      -0.110300
     18 C14         43.1380    -0.5430   -37.4730 c6         1 R5Y      -0.108400
     19 C18         45.6580    -0.8040   -37.5950 c6         1 R5Y      -0.108400
     20 C19         44.2310    -3.0600   -35.8990 ca         1 R5Y      -0.076500
     21 C23         46.9210    -3.0520   -29.0470 cd         1 R5Y      -0.288500
     22 C27         48.1120    -0.6990   -25.5610 c3         1 R5Y      -0.063200
     23 C29         45.7030     0.0670   -25.8010 c2         1 R5Y      -0.299000
     24 C31         47.4030    -1.9670   -29.8170 cd         1 R5Y       0.291900
     25 N01         44.5290    -7.1870   -28.5230 na         1 R5Y      -0.330400
     26 N06         44.2760    -5.9730   -30.6640 nb         1 R5Y      -0.281000
     27 N08         44.2150    -4.7050   -32.5790 nu         1 R5Y      -0.932900
     28 N16         44.4090     0.3190   -39.4440 n7         1 R5Y      -0.845400
     29 N21         45.5450    -3.9290   -30.8020 nb         1 R5Y      -0.265000
     30 N25         48.1900    -1.7150   -27.8800 na         1 R5Y       0.137800
     31 N30         48.1800    -1.1480   -29.1370 nc         1 R5Y      -0.529800
     32 H1          44.4710    -2.0280   -32.1590 ha         1 R5Y       0.128000
     33 H2          44.5720     0.3590   -36.1470 hc         1 R5Y       0.050700
     34 H3          43.3100     1.5370   -38.0970 h1         1 R5Y       0.051200
     35 H4          42.3130     0.5400   -39.1750 h1         1 R5Y       0.051200
     36 H5          46.5210     0.1040   -39.3780 h1         1 R5Y       0.051200
     37 H6          45.8570     1.2730   -38.2200 h1         1 R5Y       0.051200
     38 H7          44.0580    -5.0860   -35.1780 ha         1 R5Y       0.128000
     39 H8          47.3330    -3.4270   -26.8620 h4         1 R5Y       0.155000
     40 H9          49.7430    -1.7950   -26.4790 h1         1 R5Y       0.069700
     41 H10         49.4660    -0.1940   -27.1790 h1         1 R5Y       0.069700
     42 H11         47.3860     1.2820   -26.2140 ha         1 R5Y       0.175000
     43 H12         45.2420    -7.6890   -26.4890 h4         1 R5Y       0.215000
     44 H13         46.6110    -5.3860   -26.8030 ha         1 R5Y       0.199000
     45 H14         44.5870    -0.3030   -33.9100 ha         1 R5Y       0.109500
     46 H15         42.2880    -0.3250   -36.8120 hc         1 R5Y       0.045450
     47 H16         42.9270    -1.5130   -37.9420 hc         1 R5Y       0.045450
     48 H17         45.6200    -1.7930   -38.0720 hc         1 R5Y       0.045450
     49 H18         46.5940    -0.7720   -37.0200 hc         1 R5Y       0.045450
     50 H19         44.1510    -3.3590   -36.9420 ha         1 R5Y       0.109500
     51 H20         47.6790    -1.6080   -25.1250 hc         1 R5Y       0.053200
     52 H21         48.7770    -0.2820   -24.7950 hc         1 R5Y       0.053200
     53 H22         44.9680     0.8330   -26.0510 ha         1 R5Y       0.164500
     54 H23         45.3120    -0.9000   -25.4810 ha         1 R5Y       0.164500
     55 H24         47.2090    -1.7530   -30.8620 h4         1 R5Y       0.051100
     56 H25         43.9210    -7.9760   -28.7160 hn         1 R5Y       0.361000
     57 H26         43.7800    -5.5600   -32.9220 hn         1 R5Y       0.507000
     58 H27         44.2920    -0.5910   -39.9070 hn         1 R5Y       0.400000
@<TRIPOS>BOND
     1     1    15 ar  
     2     1    16 ar  
     3     1    32 1   
     4     2    17 1   
     5     2    18 1   
     6     2    19 1   
     7     2    33 1   
     8     3    18 1   
     9     3    28 1   
    10     3    34 1   
    11     3    35 1   
    12     4    19 1   
    13     4    28 1   
    14     4    36 1   
    15     4    37 1   
    16     5    15 ar  
    17     5    20 ar  
    18     5    38 1   
    19     6    12 ar  
    20     6    21 1   
    21     6    29 ar  
    22     7    21 2   
    23     7    30 1   
    24     7    39 1   
    25     8    22 1   
    26     8    30 1   
    27     8    40 1   
    28     8    41 1   
    29     9    22 1   
    30     9    23 2   
    31     9    42 1   
    32    10    11 2   
    33    10    25 1   
    34    10    43 1   
    35    11    12 1   
    36    11    44 1   
    37    12    13 ar  
    38    13    25 1   
    39    13    26 ar  
    40    14    26 ar  
    41    14    27 1   
    42    14    29 ar  
    43    15    27 1   
    44    16    17 ar  
    45    16    45 1   
    46    17    20 ar  
    47    18    46 1   
    48    18    47 1   
    49    19    48 1   
    50    19    49 1   
    51    20    50 1   
    52    21    24 1   
    53    22    51 1   
    54    22    52 1   
    55    23    53 1   
    56    23    54 1   
    57    24    31 2   
    58    24    55 1   
    59    25    56 1   
    60    27    57 1   
    61    28    58 1   
    62    30    31 1   
@<TRIPOS>SUBSTRUCTURE
     1 R5Y         1 TEMP              0 ****  ****    0 ROOT
