@<TRIPOS>MOLECULE
R5Z
   66    69     1     0     0
SMALL
No Charge or Current Charge


@<TRIPOS>ATOM
      1 C1         -15.6990   116.7260   301.9890 c3         1 R5Z       0.144900
      2 O2         -15.8390   112.4150   310.8250 o          1 R5Z      -0.533000
      3 C3         -16.0880   116.0640   304.7890 ca         1 R5Z      -0.180000
      4 C5         -16.8760   114.4810   306.4820 ca         1 R5Z      -0.085300
      5 C6         -17.0640   114.1210   307.9610 c5         1 R5Z       0.191800
      6 C7         -18.7590   112.0730   310.4270 c3         1 R5Z       0.132700
      7 C8         -18.4340   110.5950   310.7690 c3         1 R5Z      -0.086400
      8 C9         -19.6450   109.6690   311.0380 c3         1 R5Z      -0.069400
      9 C10        -20.8380   110.2660   311.8220 c3         1 R5Z      -0.072400
     10 C11        -20.4810   111.2490   312.9600 c3         1 R5Z      -0.072400
     11 C12        -20.2760   112.7040   312.4780 c3         1 R5Z      -0.069400
     12 C14        -16.3890   112.7260   309.7750 c          1 R5Z       0.555000
     13 C15        -15.7970   113.3490   308.4960 c5         1 R5Z      -0.131000
     14 C17        -14.5950   114.2740   308.8300 c3         1 R5Z      -0.075600
     15 C18        -17.2910   113.6130   305.4490 ca         1 R5Z      -0.124000
     16 C19        -17.1140   113.9640   304.0930 ca         1 R5Z       0.089100
     17 C16        -15.2970   112.1930   307.5780 c3         1 R5Z      -0.075600
     18 C13        -18.9870   112.9730   311.6690 c3         1 R5Z      -0.086400
     19 N1         -18.2170   113.2240   308.2440 n7         1 R5Z      -0.599400
     20 C4         -16.2840   115.7110   306.1350 ca         1 R5Z      -0.089000
     21 C2         -16.4960   115.1900   303.7580 ca         1 R5Z       0.131100
     22 O1         -16.3180   115.5010   302.4200 os         1 R5Z      -0.318100
     23 C20        -18.5480   112.2340   303.2200 c2         1 R5Z      -0.030900
     24 C21        -18.7270   111.1890   302.3840 ce         1 R5Z      -0.197200
     25 C22        -19.8390   110.1940   302.4460 ca         1 R5Z      -0.039800
     26 C23        -20.7390   110.1430   303.5330 ca         1 R5Z      -0.103000
     27 C24        -21.7720   109.1900   303.5580 ca         1 R5Z      -0.110000
     28 C25        -21.9170   108.2790   302.5000 ca         1 R5Z      -0.108000
     29 C26        -21.0250   108.3190   301.4160 ca         1 R5Z      -0.110000
     30 C27        -19.9910   109.2720   301.3910 ca         1 R5Z      -0.103000
     31 N2         -17.7670   112.6700   309.4990 n          1 R5Z      -0.293200
     32 H1         -15.6570   116.7650   300.8930 h1         1 R5Z       0.041700
     33 H2         -16.2700   117.5960   302.3380 h1         1 R5Z       0.041700
     34 H3         -14.6730   116.8000   302.3710 h1         1 R5Z       0.041700
     35 H4         -15.6180   117.0180   304.5690 ha         1 R5Z       0.122000
     36 H5         -17.1940   115.0430   308.5480 h1         1 R5Z       0.046700
     37 H6         -19.7070   112.0590   309.8720 h1         1 R5Z       0.053700
     38 H7         -17.8650   110.1540   309.9410 hc         1 R5Z       0.055200
     39 H8         -17.7640   110.5700   311.6370 hc         1 R5Z       0.055200
     40 H9         -19.2800   108.7850   311.5750 hc         1 R5Z       0.037200
     41 H10        -20.0250   109.3000   310.0770 hc         1 R5Z       0.037200
     42 H11        -21.5180   110.7640   311.1190 hc         1 R5Z       0.037450
     43 H12        -21.4100   109.4320   312.2470 hc         1 R5Z       0.037450
     44 H13        -21.3110   111.2500   313.6780 hc         1 R5Z       0.037450
     45 H14        -19.5990   110.8970   313.5090 hc         1 R5Z       0.037450
     46 H15        -20.2670   113.3600   313.3570 hc         1 R5Z       0.037200
     47 H16        -21.1430   113.0110   311.8810 hc         1 R5Z       0.037200
     48 H17        -13.7830   113.7170   309.3150 hc         1 R5Z       0.046367
     49 H18        -14.1830   114.7360   307.9250 hc         1 R5Z       0.046367
     50 H19        -14.8930   115.0810   309.5100 hc         1 R5Z       0.046367
     51 H20        -17.7290   112.6540   305.7080 ha         1 R5Z       0.142000
     52 H21        -14.5210   111.6000   308.0770 hc         1 R5Z       0.046367
     53 H22        -16.1100   111.5060   307.3140 hc         1 R5Z       0.046367
     54 H23        -14.8650   112.5740   306.6450 hc         1 R5Z       0.046367
     55 H24        -18.1230   112.8860   312.3390 hc         1 R5Z       0.055200
     56 H25        -19.0130   114.0190   311.3420 hc         1 R5Z       0.055200
     57 H26        -19.0340   113.8300   308.4040 hn         1 R5Z       0.414000
     58 H27        -15.9640   116.3970   306.9170 ha         1 R5Z       0.114000
     59 H28        -19.2310   112.4680   304.0350 h4         1 R5Z       0.179000
     60 H29        -18.0140   111.0320   301.5740 ha         1 R5Z       0.193000
     61 H30        -20.6440   110.8310   304.3680 ha         1 R5Z       0.112000
     62 H31        -22.4600   109.1580   304.4000 ha         1 R5Z       0.112000
     63 H32        -22.7170   107.5420   302.5200 ha         1 R5Z       0.113000
     64 H33        -21.1340   107.6140   300.5960 ha         1 R5Z       0.112000
     65 H34        -19.3080   109.2920   300.5450 ha         1 R5Z       0.112000
     66 O3         -17.5020   113.1080   303.0770 os         1 R5Z      -0.228200
@<TRIPOS>BOND
     1     1    22 1   
     2     1    32 1   
     3     1    33 1   
     4     1    34 1   
     5     2    12 2   
     6     3    20 ar  
     7     3    21 ar  
     8     3    35 1   
     9     4     5 1   
    10     4    15 ar  
    11     4    20 ar  
    12     5    13 1   
    13     5    19 1   
    14     5    36 1   
    15     6     7 1   
    16     6    18 1   
    17     6    31 1   
    18     6    37 1   
    19     7     8 1   
    20     7    38 1   
    21     7    39 1   
    22     8     9 1   
    23     8    40 1   
    24     8    41 1   
    25     9    10 1   
    26     9    42 1   
    27     9    43 1   
    28    10    11 1   
    29    10    44 1   
    30    10    45 1   
    31    11    18 1   
    32    11    46 1   
    33    11    47 1   
    34    12    13 1   
    35    12    31 1   
    36    13    14 1   
    37    13    17 1   
    38    14    48 1   
    39    14    49 1   
    40    14    50 1   
    41    15    16 ar  
    42    15    51 1   
    43    16    21 ar  
    44    16    66 1   
    45    17    52 1   
    46    17    53 1   
    47    17    54 1   
    48    18    55 1   
    49    18    56 1   
    50    19    31 1   
    51    19    57 1   
    52    20    58 1   
    53    21    22 1   
    54    23    24 2   
    55    23    59 1   
    56    23    66 1   
    57    24    25 1   
    58    24    60 1   
    59    25    26 ar  
    60    25    30 ar  
    61    26    27 ar  
    62    26    61 1   
    63    27    28 ar  
    64    27    62 1   
    65    28    29 ar  
    66    28    63 1   
    67    29    30 ar  
    68    29    64 1   
    69    30    65 1   
@<TRIPOS>SUBSTRUCTURE
     1 R5Z         1 TEMP              0 ****  ****    0 ROOT
