@<TRIPOS>MOLECULE
R5Z
   66    69     1     0     0
SMALL
bcc


@<TRIPOS>ATOM
      1 C1         -15.7230   116.3490   301.7880 c3         1 R5Z       0.121700
      2 O2         -15.9760   112.5170   310.7170 o          1 R5Z      -0.608500
      3 C3         -15.9460   116.0610   304.5810 ca         1 R5Z      -0.198000
      4 C5         -16.7430   114.7580   306.4550 ca         1 R5Z      -0.085300
      5 C6         -16.8660   114.5330   307.9340 c5         1 R5Z       0.191800
      6 C7         -18.8670   112.3280   310.0290 c3         1 R5Z       0.132700
      7 C8         -18.7330   110.9360   309.3940 c3         1 R5Z      -0.086400
      8 C9         -20.0550   110.2210   309.1120 c3         1 R5Z      -0.069400
      9 C10        -21.1450   110.3480   310.1800 c3         1 R5Z      -0.072400
     10 C11        -20.6620   110.3610   311.6300 c3         1 R5Z      -0.072400
     11 C12        -20.2260   111.7420   312.1170 c3         1 R5Z      -0.069400
     12 C14        -16.4930   113.0920   309.7730 c          1 R5Z       0.697500
     13 C15        -15.7440   113.7150   308.6020 c5         1 R5Z      -0.131000
     14 C17        -14.5720   114.5750   309.0400 c3         1 R5Z      -0.075600
     15 C18        -17.2570   113.8290   305.5510 ca         1 R5Z      -0.142000
     16 C19        -17.1370   114.0170   304.1890 ca         1 R5Z       0.089100
     17 C16        -15.2530   112.5500   307.7360 c3         1 R5Z      -0.075600
     18 C13        -18.9140   112.2820   311.5560 c3         1 R5Z      -0.086400
     19 N1         -18.0670   113.7630   308.2580 n7         1 R5Z      -0.544200
     20 C4         -16.0920   115.8720   305.9540 ca         1 R5Z      -0.107000
     21 C2         -16.4690   115.1430   303.6810 ca         1 R5Z       0.131100
     22 O1         -16.3970   115.2380   302.3420 os         1 R5Z      -0.294900
     23 C20        -18.6230   112.3030   303.6950 c2         1 R5Z       0.019100
     24 C21        -18.6720   111.0280   303.3170 ce         1 R5Z      -0.147200
     25 C22        -19.7240   110.0950   303.7300 ca         1 R5Z      -0.039800
     26 C23        -20.4640   110.2730   304.9030 ca         1 R5Z      -0.121000
     27 C24        -21.4440   109.3650   305.2680 ca         1 R5Z      -0.128000
     28 C25        -21.7010   108.2500   304.4790 ca         1 R5Z      -0.126000
     29 C26        -20.9590   108.0500   303.3230 ca         1 R5Z      -0.128000
     30 C27        -19.9800   108.9610   302.9540 ca         1 R5Z      -0.121000
     31 N2         -17.8150   113.2230   309.5450 n          1 R5Z      -0.360200
     32 H1         -15.7720   116.2320   300.7080 h1         1 R5Z       0.041700
     33 H2         -16.1980   117.2940   302.0620 h1         1 R5Z       0.041700
     34 H3         -14.6730   116.3820   302.0920 h1         1 R5Z       0.041700
     35 H4         -15.4330   116.9460   304.2310 ha         1 R5Z       0.140000
     36 H5         -16.8910   115.5110   308.4360 h1         1 R5Z       0.046700
     37 H6         -19.7980   112.7940   309.6860 h1         1 R5Z       0.053700
     38 H7         -18.1970   111.0230   308.4460 hc         1 R5Z       0.055200
     39 H8         -18.1050   110.3200   310.0430 hc         1 R5Z       0.055200
     40 H9         -19.8300   109.1640   308.9520 hc         1 R5Z       0.037200
     41 H10        -20.4620   110.5850   308.1640 hc         1 R5Z       0.037200
     42 H11        -21.7260   111.2610   310.0080 hc         1 R5Z       0.037450
     43 H12        -21.8510   109.5270   310.0360 hc         1 R5Z       0.037450
     44 H13        -21.4840   110.0290   312.2700 hc         1 R5Z       0.037450
     45 H14        -19.8590   109.6300   311.7760 hc         1 R5Z       0.037450
     46 H15        -20.1290   111.7190   313.2060 hc         1 R5Z       0.037200
     47 H16        -21.0320   112.4520   311.9020 hc         1 R5Z       0.037200
     48 H17        -13.8250   113.9770   309.5630 hc         1 R5Z       0.046367
     49 H18        -14.0860   115.0230   308.1710 hc         1 R5Z       0.046367
     50 H19        -14.8870   115.3830   309.7020 hc         1 R5Z       0.046367
     51 H20        -17.7570   112.9480   305.9340 ha         1 R5Z       0.160000
     52 H21        -14.5470   111.9370   308.2970 hc         1 R5Z       0.046367
     53 H22        -16.0680   111.9050   307.4040 hc         1 R5Z       0.046367
     54 H23        -14.7410   112.9250   306.8500 hc         1 R5Z       0.046367
     55 H24        -18.0860   111.6770   311.9290 hc         1 R5Z       0.055200
     56 H25        -18.7650   113.2920   311.9460 hc         1 R5Z       0.055200
     57 H26        -18.8520   114.4000   308.3550 hn         1 R5Z       0.358800
     58 H27        -15.6920   116.6170   306.6310 ha         1 R5Z       0.132000
     59 H28        -19.3810   112.7650   304.3210 h4         1 R5Z       0.129000
     60 H29        -17.8990   110.6420   302.6600 ha         1 R5Z       0.143000
     61 H30        -20.2600   111.1130   305.5570 ha         1 R5Z       0.130000
     62 H31        -22.0000   109.5220   306.1840 ha         1 R5Z       0.130000
     63 H32        -22.4620   107.5390   304.7710 ha         1 R5Z       0.131000
     64 H33        -21.1410   107.1810   302.7040 ha         1 R5Z       0.130000
     65 H34        -19.4060   108.7950   302.0500 ha         1 R5Z       0.130000
     66 O3         -17.6280   113.1310   303.2770 os         1 R5Z      -0.228200
@<TRIPOS>BOND
     1     1    22 1   
     2     1    32 1   
     3     1    33 1   
     4     1    34 1   
     5     2    12 2   
     6     3    20 ar  
     7     3    21 ar  
     8     3    35 1   
     9     4     5 1   
    10     4    15 ar  
    11     4    20 ar  
    12     5    13 1   
    13     5    19 1   
    14     5    36 1   
    15     6     7 1   
    16     6    18 1   
    17     6    31 1   
    18     6    37 1   
    19     7     8 1   
    20     7    38 1   
    21     7    39 1   
    22     8     9 1   
    23     8    40 1   
    24     8    41 1   
    25     9    10 1   
    26     9    42 1   
    27     9    43 1   
    28    10    11 1   
    29    10    44 1   
    30    10    45 1   
    31    11    18 1   
    32    11    46 1   
    33    11    47 1   
    34    12    13 1   
    35    12    31 1   
    36    13    14 1   
    37    13    17 1   
    38    14    48 1   
    39    14    49 1   
    40    14    50 1   
    41    15    16 ar  
    42    15    51 1   
    43    16    21 ar  
    44    16    66 1   
    45    17    52 1   
    46    17    53 1   
    47    17    54 1   
    48    18    55 1   
    49    18    56 1   
    50    19    31 1   
    51    19    57 1   
    52    20    58 1   
    53    21    22 1   
    54    23    24 2   
    55    23    59 1   
    56    23    66 1   
    57    24    25 1   
    58    24    60 1   
    59    25    26 ar  
    60    25    30 ar  
    61    26    27 ar  
    62    26    61 1   
    63    27    28 ar  
    64    27    62 1   
    65    28    29 ar  
    66    28    63 1   
    67    29    30 ar  
    68    29    64 1   
    69    30    65 1   
@<TRIPOS>SUBSTRUCTURE
     1 R5Z         1 TEMP              0 ****  ****    0 ROOT
