@<TRIPOS>MOLECULE
R61
   67    71     1     0     0
SMALL
No Charge or Current Charge


@<TRIPOS>ATOM
      1 C20         49.3640    -2.1290   -29.7410 ca         1 R61      -0.127000
      2 C21         49.7840    -1.2680   -28.7160 ca         1 R61       0.163000
      3 C24         48.2730    -2.3780   -27.1670 ca         1 R61      -0.087000
      4 C26         51.0590    -0.4390   -25.8840 c5         1 R61       0.183800
      5 C28         49.8790     1.2420   -24.5740 c5         1 R61      -0.314400
      6 C01         46.5360     3.5050   -37.6780 c3         1 R61       0.154100
      7 C03         46.4000     2.5950   -35.3920 c6         1 R61       0.166300
      8 C04         45.7770     1.4970   -34.4960 c6         1 R61      -0.070400
      9 C05         46.1910     0.0830   -34.9830 c6         1 R61       0.000600
     10 C06         45.8400    -0.0770   -36.4860 c6         1 R61      -0.070400
     11 C07         46.4620     1.0680   -37.3240 c6         1 R61       0.166300
     12 C08         45.6190    -1.0560   -34.1010 ca         1 R61      -0.184300
     13 C09         46.4880    -1.9230   -33.3990 ca         1 R61       0.228000
     14 C11         45.9870    -2.9530   -32.5960 ca         1 R61      -0.226500
     15 C12         44.6100    -3.1400   -32.4590 ca         1 R61       0.372000
     16 C14         44.4850    -4.7520   -30.4780 ca         1 R61       0.415900
     17 C16         45.8350    -4.7810   -28.6370 ca         1 R61       0.421900
     18 C18         47.8330    -3.2320   -28.1920 ca         1 R61       0.280000
     19 C19         48.3950    -3.1120   -29.4770 ca         1 R61      -0.072000
     20 C23         49.2420    -1.3860   -27.4110 ca         1 R61       0.234000
     21 C27         51.1800     1.0370   -25.4050 c5         1 R61      -0.080400
     22 C32         45.1200    -5.8790   -28.1270 ca         1 R61      -0.288300
     23 C33         45.4540    -6.5380   -26.7900 c3         1 R61      -0.023800
     24 C34         44.0570    -6.3590   -28.9130 ca         1 R61       0.171900
     25 C36         43.7340    -2.3110   -33.1610 ca         1 R61      -0.226500
     26 C37         44.2280    -1.2770   -33.9670 ca         1 R61       0.228000
     27 F22         50.7090    -0.3200   -29.0030 f          1 R61      -0.177000
     28 F38         43.3320    -0.4980   -34.6120 f          1 R61      -0.170000
     29 N02         46.0400     2.4050   -36.8240 n3         1 R61      -0.716600
     30 N15         45.5130    -4.2090   -29.8070 nb         1 R61      -0.296000
     31 N17         46.8680    -4.2070   -27.9040 nu         1 R61      -0.954900
     32 N25         49.6560    -0.5410   -26.3570 nh         1 R61      -0.739300
     33 N35         43.7330    -5.7910   -30.0890 nb         1 R61      -0.262000
     34 S29         48.5550     0.6000   -25.6810 s6         1 R61       1.160100
     35 H1          49.7920    -2.0360   -30.7370 ha         1 R61       0.142000
     36 H2          47.8590    -2.4840   -26.1700 ha         1 R61       0.135000
     37 H3          51.7890    -0.6580   -26.6760 h1         1 R61       0.074700
     38 H4          51.2440    -1.1410   -25.0590 h1         1 R61       0.074700
     39 H6          49.8490     0.6260   -23.6690 h1         1 R61       0.109200
     40 H7          49.6470     2.2850   -24.3370 h1         1 R61       0.109200
     41 H8          46.2010     3.3720   -38.7160 h1         1 R61       0.028700
     42 H9          46.1570     4.4730   -37.3230 h1         1 R61       0.028700
     43 H10         47.6340     3.5420   -37.6720 h1         1 R61       0.028700
     44 H11         46.0510     3.5770   -35.0390 h1         1 R61       0.029700
     45 H12         47.4940     2.5790   -35.2710 h1         1 R61       0.029700
     46 H13         46.0990     1.6440   -33.4570 hc         1 R61       0.052950
     47 H14         44.6860     1.6110   -34.5040 hc         1 R61       0.052950
     48 H15         47.2880     0.0550   -34.9250 hc         1 R61       0.060700
     49 H16         46.2080    -1.0430   -36.8550 hc         1 R61       0.052950
     50 H17         44.7540    -0.0770   -36.6370 hc         1 R61       0.052950
     51 H18         47.5580     0.9800   -37.2940 h1         1 R61       0.029700
     52 H19         46.1570     0.9400   -38.3730 h1         1 R61       0.029700
     53 H20         46.6810    -3.6170   -32.0970 ha         1 R61       0.152000
     54 H21         48.0980    -3.7930   -30.2670 ha         1 R61       0.136000
     55 H22         52.0870     1.2010   -24.8120 hc         1 R61       0.067700
     56 H23         51.2250     1.7230   -26.2590 hc         1 R61       0.067700
     57 H24         45.2820    -5.8490   -25.9550 hc         1 R61       0.040367
     58 H25         44.8360    -7.4270   -26.6140 hc         1 R61       0.040367
     59 H26         46.5030    -6.8590   -26.7570 hc         1 R61       0.040367
     60 H27         43.4490    -7.2050   -28.5960 h4         1 R61       0.022100
     61 H28         42.6620    -2.4510   -33.0740 ha         1 R61       0.152000
     62 H30         43.1560    -4.4610   -31.9520 hn         1 R61       0.515000
     63 H31         46.8460    -4.4920   -26.9260 hn         1 R61       0.510000
     64 O30         47.5300    -0.1390   -24.9370 o          1 R61      -0.516000
     65 N13         44.0860    -4.1580   -31.6660 nu         1 R61      -0.926900
     66 O31         48.2060     1.5540   -26.7390 o          1 R61      -0.516000
     67 F10         47.8300    -1.7830   -33.4900 f          1 R61      -0.170000
@<TRIPOS>BOND
     1     1     2 ar  
     2     1    19 ar  
     3     1    35 1   
     4     2    20 ar  
     5     2    27 1   
     6     3    18 ar  
     7     3    20 ar  
     8     3    36 1   
     9     4    21 1   
    10     4    32 1   
    11     4    37 1   
    12     4    38 1   
    13     5    21 1   
    14     5    34 1   
    15     5    39 1   
    16     5    40 1   
    17     6    29 1   
    18     6    41 1   
    19     6    42 1   
    20     6    43 1   
    21     7     8 1   
    22     7    29 1   
    23     7    44 1   
    24     7    45 1   
    25     8     9 1   
    26     8    46 1   
    27     8    47 1   
    28     9    10 1   
    29     9    12 1   
    30     9    48 1   
    31    10    11 1   
    32    10    49 1   
    33    10    50 1   
    34    11    29 1   
    35    11    51 1   
    36    11    52 1   
    37    12    13 ar  
    38    12    26 ar  
    39    13    14 ar  
    40    13    67 1   
    41    14    15 ar  
    42    14    53 1   
    43    15    25 ar  
    44    15    65 1   
    45    16    30 ar  
    46    16    33 ar  
    47    16    65 1   
    48    17    22 ar  
    49    17    30 ar  
    50    17    31 1   
    51    18    19 ar  
    52    18    31 1   
    53    19    54 1   
    54    20    32 1   
    55    21    55 1   
    56    21    56 1   
    57    22    23 1   
    58    22    24 ar  
    59    23    57 1   
    60    23    58 1   
    61    23    59 1   
    62    24    33 ar  
    63    24    60 1   
    64    25    26 ar  
    65    25    61 1   
    66    26    28 1   
    67    31    63 1   
    68    32    34 1   
    69    34    64 2   
    70    34    66 2   
    71    62    65 1   
@<TRIPOS>SUBSTRUCTURE
     1 R61         1 TEMP              0 ****  ****    0 ROOT
