@<TRIPOS>MOLECULE
R61
   67    71     1     0     0
SMALL
abcg2


@<TRIPOS>ATOM
      1 C20         49.3420    -2.7670   -29.7300 ca         1 R61      -0.127000
      2 C21         49.5260    -1.6720   -28.9100 ca         1 R61       0.163000
      3 C24         47.9060    -2.5050   -27.3730 ca         1 R61      -0.087000
      4 C26         50.2200    -0.3360   -25.9970 c5         1 R61       0.183800
      5 C28         50.3050     1.7860   -27.3000 c5         1 R61      -0.314400
      6 C01         46.4860     3.8700   -36.7030 c3         1 R61       0.154100
      7 C03         45.6560     2.7790   -34.7440 c6         1 R61       0.166300
      8 C04         45.1500     1.4680   -34.1640 c6         1 R61      -0.070400
      9 C05         46.2460     0.4000   -34.2280 c6         1 R61       0.000600
     10 C06         46.7630     0.2800   -35.6640 c6         1 R61      -0.070400
     11 C07         47.2000     1.6450   -36.1760 c6         1 R61       0.166300
     12 C08         45.8100    -0.9020   -33.6040 ca         1 R61      -0.184300
     13 C09         46.3540    -1.3810   -32.4200 ca         1 R61       0.228000
     14 C11         45.9480    -2.5190   -31.7510 ca         1 R61      -0.226500
     15 C12         44.9050    -3.2750   -32.2850 ca         1 R61       0.372000
     16 C14         44.6370    -5.0110   -30.5000 ca         1 R61       0.415900
     17 C16         45.8130    -5.1200   -28.5630 ca         1 R61       0.421900
     18 C18         47.7100    -3.6220   -28.1770 ca         1 R61       0.280000
     19 C19         48.4450    -3.7500   -29.3540 ca         1 R61      -0.072000
     20 C23         48.8300    -1.5240   -27.7190 ca         1 R61       0.234000
     21 C27         51.1590     0.7230   -26.6050 c5         1 R61      -0.080400
     22 C32         45.0440    -6.2240   -28.1380 ca         1 R61      -0.288300
     23 C33         45.2730    -6.9210   -26.8350 c3         1 R61      -0.023800
     24 C34         44.0850    -6.6270   -29.0420 ca         1 R61       0.171900
     25 C36         44.3350    -2.8570   -33.4940 ca         1 R61      -0.226500
     26 C37         44.7920    -1.7110   -34.1020 ca         1 R61       0.228000
     27 F22         50.4100    -0.7330   -29.2710 f          1 R61      -0.177000
     28 F38         44.1940    -1.3560   -35.2510 f          1 R61      -0.170000
     29 N02         46.1160     2.6070   -36.1080 n3         1 R61      -0.716600
     30 N15         45.5990    -4.5290   -29.7320 nb         1 R61      -0.296000
     31 N17         46.8060    -4.6230   -27.7810 nu         1 R61      -0.954900
     32 N25         49.0300    -0.4300   -26.8460 nh         1 R61      -0.739300
     33 N35         43.8570    -6.0500   -30.2190 nb         1 R61      -0.262000
     34 S29         48.6210     1.1200   -27.3290 s6         1 R61       1.160100
     35 H1          49.9080    -2.8580   -30.6470 ha         1 R61       0.142000
     36 H2          47.3380    -2.3860   -26.4590 ha         1 R61       0.135000
     37 H3          50.6940    -1.3130   -25.9400 h1         1 R61       0.074700
     38 H4          49.9170    -0.0540   -24.9880 h1         1 R61       0.074700
     39 H6          50.2640     2.7320   -26.7630 h1         1 R61       0.109200
     40 H7          50.6090     1.9740   -28.3270 h1         1 R61       0.109200
     41 H8          46.7720     3.7250   -37.7460 h1         1 R61       0.028700
     42 H9          45.6380     4.5560   -36.6810 h1         1 R61       0.028700
     43 H10         47.3280     4.3640   -36.1920 h1         1 R61       0.028700
     44 H11         44.8500     3.5170   -34.7340 h1         1 R61       0.029700
     45 H12         46.4580     3.1760   -34.0950 h1         1 R61       0.029700
     46 H13         44.8410     1.6270   -33.1290 hc         1 R61       0.052950
     47 H14         44.2670     1.1460   -34.7210 hc         1 R61       0.052950
     48 H15         47.0820     0.7780   -33.6330 hc         1 R61       0.060700
     49 H16         47.6090    -0.4090   -35.7050 hc         1 R61       0.052950
     50 H17         45.9900    -0.1130   -36.3260 hc         1 R61       0.052950
     51 H18         48.0780     1.9880   -35.5970 h1         1 R61       0.029700
     52 H19         47.5260     1.5590   -37.2150 h1         1 R61       0.029700
     53 H20         46.4340    -2.7990   -30.8310 ha         1 R61       0.152000
     54 H21         48.3200    -4.6190   -29.9840 ha         1 R61       0.136000
     55 H22         51.7760     1.1700   -25.8270 hc         1 R61       0.067700
     56 H23         51.8240     0.2570   -27.3280 hc         1 R61       0.067700
     57 H24         45.1150    -6.2590   -25.9800 hc         1 R61       0.040367
     58 H25         44.5860    -7.7590   -26.7260 hc         1 R61       0.040367
     59 H26         46.2890    -7.3130   -26.7590 hc         1 R61       0.040367
     60 H27         43.4570    -7.4800   -28.8010 h4         1 R61       0.022100
     61 H28         43.5290    -3.4180   -33.9510 ha         1 R61       0.152000
     62 H30         43.6260    -4.8540   -32.2120 hn         1 R61       0.515000
     63 H31         46.8390    -4.9160   -26.8170 hn         1 R61       0.510000
     64 O30         47.8800     1.7500   -26.2470 o          1 R61      -0.516000
     65 N13         44.3820    -4.4160   -31.7080 nu         1 R61      -0.926900
     66 O31         48.0220     1.0710   -28.6510 o          1 R61      -0.516000
     67 F10         47.3600    -0.6930   -31.8540 f          1 R61      -0.170000
@<TRIPOS>BOND
     1     1     2 ar  
     2     1    19 ar  
     3     1    35 1   
     4     2    20 ar  
     5     2    27 1   
     6     3    18 ar  
     7     3    20 ar  
     8     3    36 1   
     9     4    21 1   
    10     4    32 1   
    11     4    37 1   
    12     4    38 1   
    13     5    21 1   
    14     5    34 1   
    15     5    39 1   
    16     5    40 1   
    17     6    29 1   
    18     6    41 1   
    19     6    42 1   
    20     6    43 1   
    21     7     8 1   
    22     7    29 1   
    23     7    44 1   
    24     7    45 1   
    25     8     9 1   
    26     8    46 1   
    27     8    47 1   
    28     9    10 1   
    29     9    12 1   
    30     9    48 1   
    31    10    11 1   
    32    10    49 1   
    33    10    50 1   
    34    11    29 1   
    35    11    51 1   
    36    11    52 1   
    37    12    13 ar  
    38    12    26 ar  
    39    13    14 ar  
    40    13    67 1   
    41    14    15 ar  
    42    14    53 1   
    43    15    25 ar  
    44    15    65 1   
    45    16    30 ar  
    46    16    33 ar  
    47    16    65 1   
    48    17    22 ar  
    49    17    30 ar  
    50    17    31 1   
    51    18    19 ar  
    52    18    31 1   
    53    19    54 1   
    54    20    32 1   
    55    21    55 1   
    56    21    56 1   
    57    22    23 1   
    58    22    24 ar  
    59    23    57 1   
    60    23    58 1   
    61    23    59 1   
    62    24    33 ar  
    63    24    60 1   
    64    25    26 ar  
    65    25    61 1   
    66    26    28 1   
    67    31    63 1   
    68    32    34 1   
    69    34    64 2   
    70    34    66 2   
    71    62    65 1   
@<TRIPOS>SUBSTRUCTURE
     1 R61         1 TEMP              0 ****  ****    0 ROOT
