@<TRIPOS>MOLECULE
R62
   46    48     1     0     0
SMALL
bcc


@<TRIPOS>ATOM
      1 C4           8.3020   -17.2290    23.0080 c6         1 R62      -0.069400
      2 C14          7.8020   -12.7280    14.3130 ca         1 R62      -0.120500
      3 C5           6.8220   -17.3100    22.6830 c6         1 R62      -0.070400
      4 C6           6.5380   -17.2140    21.1800 c6         1 R62      -0.086300
      5 C11          7.4830   -14.4910    17.3580 cg         1 R62      -0.321000
      6 C7           5.0530   -16.8950    20.9800 c3         1 R62      -0.078600
      7 C8           6.8590   -18.5430    20.4820 c3         1 R62      -0.078600
      8 C9           7.3900   -16.1260    20.5510 ca         1 R62       0.328300
      9 C10          7.7850   -14.8330    18.7060 ca         1 R62       0.471000
     10 C12          7.2890   -14.1810    16.2070 ch         1 R62       0.015000
     11 C13          7.0970   -13.8110    14.8480 ca         1 R62      -0.051000
     12 N1           7.0820   -15.7860    19.3070 nb         1 R62      -0.647000
     13 N2           9.1450   -14.5350    20.6100 nb         1 R62      -0.652000
     14 C2           8.9150   -15.8830    22.6080 c6         1 R62      -0.084300
     15 C15          7.6330   -12.3760    12.9860 ca         1 R62      -0.117500
     16 C16          6.7690   -13.0880    12.1560 ca         1 R62      -0.107600
     17 C17          6.5990   -12.6940    10.6880 c          1 R62       0.923200
     18 O1           5.8520   -13.4190    10.0050 o          1 R62      -0.818300
     19 O2           7.2260   -11.6860    10.3150 o          1 R62      -0.818300
     20 C18          6.0690   -14.1640    12.6970 ca         1 R62      -0.117500
     21 C19          6.2220   -14.5260    14.0240 ca         1 R62      -0.120500
     22 C20          8.8170   -14.1850    19.3840 ca         1 R62       0.293900
     23 C21          8.4700   -15.5120    21.2100 ca         1 R62       0.297300
     24 H7           8.4640   -17.3850    24.0770 hc         1 R62       0.041700
     25 H8           8.8400   -18.0350    22.4980 hc         1 R62       0.041700
     26 H10          6.2870   -16.5110    23.2040 hc         1 R62       0.041200
     27 H9           6.4020   -18.2460    23.0600 hc         1 R62       0.041200
     28 H13          4.7940   -15.9290    21.4160 hc         1 R62       0.038867
     29 H11          4.7770   -16.8790    19.9270 hc         1 R62       0.038867
     30 H12          4.4460   -17.6570    21.4740 hc         1 R62       0.038867
     31 H14          6.2290   -19.3370    20.8870 hc         1 R62       0.038867
     32 H15          6.6670   -18.4740    19.4110 hc         1 R62       0.038867
     33 H16          7.9000   -18.8420    20.6140 hc         1 R62       0.038867
     34 H18          8.1820   -11.5360    12.5840 ha         1 R62       0.150000
     35 H19          5.3940   -14.7290    12.0670 ha         1 R62       0.150000
     36 H20          5.6700   -15.3650    14.4280 ha         1 R62       0.114000
     37 H21          9.3800   -13.3850    18.9150 h4         1 R62       0.035100
     38 C3           8.4640   -14.7720    23.5680 c3         1 R62      -0.077100
     39 C1          10.4410   -15.9940    22.6660 c3         1 R62      -0.077100
     40 H4           8.7880   -15.0010    24.5850 hc         1 R62       0.036700
     41 H5           8.9030   -13.8150    23.2830 hc         1 R62       0.036700
     42 H6           7.3800   -14.6490    23.5810 hc         1 R62       0.036700
     43 H1          10.7470   -16.3030    23.6680 hc         1 R62       0.036700
     44 H2          10.8130   -16.7390    21.9610 hc         1 R62       0.036700
     45 H3          10.9250   -15.0440    22.4450 hc         1 R62       0.036700
     46 H17          8.4820   -12.1690    14.9440 ha         1 R62       0.114000
@<TRIPOS>BOND
     1     1     3 1   
     2     1    14 1   
     3     1    24 1   
     4     1    25 1   
     5     2    11 ar  
     6     2    15 ar  
     7     2    46 1   
     8     3     4 1   
     9     3    26 1   
    10     3    27 1   
    11     4     6 1   
    12     4     7 1   
    13     4     8 1   
    14     5     9 1   
    15     5    10 3   
    16     6    28 1   
    17     6    29 1   
    18     6    30 1   
    19     7    31 1   
    20     7    32 1   
    21     7    33 1   
    22     8    12 ar  
    23     8    23 ar  
    24     9    12 ar  
    25     9    22 ar  
    26    10    11 1   
    27    11    21 ar  
    28    13    22 ar  
    29    13    23 ar  
    30    14    23 1   
    31    14    38 1   
    32    14    39 1   
    33    15    16 ar  
    34    15    34 1   
    35    16    17 1   
    36    16    20 ar  
    37    17    18 1   
    38    17    19 1   
    39    20    21 ar  
    40    20    35 1   
    41    21    36 1   
    42    22    37 1   
    43    38    40 1   
    44    38    41 1   
    45    38    42 1   
    46    39    43 1   
    47    39    44 1   
    48    39    45 1   
@<TRIPOS>SUBSTRUCTURE
     1 R62         1 TEMP              0 ****  ****    0 ROOT
