@<TRIPOS>MOLECULE
R62
   46    48     1     0     0
SMALL
No Charge or Current Charge


@<TRIPOS>ATOM
      1 C4           8.2070   -17.2120    23.1130 c6         1 R62      -0.069400
      2 C14          7.9550   -12.8120    14.1590 ca         1 R62      -0.102500
      3 C5           6.7330   -17.2840    22.6600 c6         1 R62      -0.070400
      4 C6           6.5890   -17.2370    21.1090 c6         1 R62      -0.086300
      5 C11          7.6880   -14.4730    17.2990 cg         1 R62      -0.321000
      6 C7           5.0780   -17.0190    20.7680 c3         1 R62      -0.078600
      7 C8           7.0010   -18.6100    20.4840 c3         1 R62      -0.078600
      8 C9           7.4810   -16.1210    20.4980 ca         1 R62       0.328300
      9 C10          7.9900   -14.8270    18.6560 ca         1 R62       0.471000
     10 C12          7.4430   -14.1620    16.1440 ch         1 R62       0.015000
     11 C13          7.1690   -13.7870    14.7970 ca         1 R62      -0.051000
     12 N1           7.2030   -15.7840    19.2040 nb         1 R62      -0.647000
     13 N2           9.3450   -14.5390    20.6660 nb         1 R62      -0.652000
     14 C2           8.8850   -15.8710    22.7020 c6         1 R62      -0.084300
     15 C15          7.6860   -12.4410    12.8300 ca         1 R62      -0.099500
     16 C16          6.6230   -13.0400    12.1120 ca         1 R62      -0.107600
     17 C17          6.3310   -12.6390    10.6720 c          1 R62       0.712600
     18 O1           5.4020   -13.1830    10.0900 o          1 R62      -0.713000
     19 O2           7.0340   -11.7870    10.1470 o          1 R62      -0.713000
     20 C18          5.8390   -14.0200    12.7660 ca         1 R62      -0.099500
     21 C19          6.1100   -14.3900    14.0950 ca         1 R62      -0.102500
     22 C20          9.0480   -14.2090    19.3780 ca         1 R62       0.293900
     23 C21          8.5630   -15.5100    21.2250 ca         1 R62       0.297300
     24 H7           8.2610   -17.3420    24.2030 hc         1 R62       0.041700
     25 H8           8.7620   -18.0600    22.6900 hc         1 R62       0.041700
     26 H10          6.1690   -16.4600    23.1160 hc         1 R62       0.041200
     27 H9           6.2750   -18.2030    23.0520 hc         1 R62       0.041200
     28 H13          4.7320   -16.0360    21.1100 hc         1 R62       0.038867
     29 H11          4.8830   -17.0780    19.6900 hc         1 R62       0.038867
     30 H12          4.4460   -17.7760    21.2490 hc         1 R62       0.038867
     31 H14          6.4360   -19.4400    20.9260 hc         1 R62       0.038867
     32 H15          6.8170   -18.6300    19.4030 hc         1 R62       0.038867
     33 H16          8.0670   -18.8210    20.6300 hc         1 R62       0.038867
     34 H18          8.3090   -11.6840    12.3580 ha         1 R62       0.132000
     35 H19          5.0140   -14.5010    12.2440 ha         1 R62       0.132000
     36 H20          5.4940   -15.1460    14.5780 ha         1 R62       0.096000
     37 H21          9.6650   -13.4390    18.9160 h4         1 R62       0.035100
     38 C3           8.3910   -14.7080    23.6230 c3         1 R62      -0.077100
     39 C1          10.4260   -16.0130    22.9380 c3         1 R62      -0.077100
     40 H4           8.5460   -14.9410    24.6840 hc         1 R62       0.036700
     41 H5           8.9270   -13.7740    23.4130 hc         1 R62       0.036700
     42 H6           7.3240   -14.5010    23.4820 hc         1 R62       0.036700
     43 H1          10.6450   -16.3250    23.9660 hc         1 R62       0.036700
     44 H2          10.8610   -16.7640    22.2670 hc         1 R62       0.036700
     45 H3          10.9600   -15.0710    22.7670 hc         1 R62       0.036700
     46 H17          8.7780   -12.3380    14.6920 ha         1 R62       0.096000
@<TRIPOS>BOND
     1     1     3 1   
     2     1    14 1   
     3     1    24 1   
     4     1    25 1   
     5     2    11 ar  
     6     2    15 ar  
     7     2    46 1   
     8     3     4 1   
     9     3    26 1   
    10     3    27 1   
    11     4     6 1   
    12     4     7 1   
    13     4     8 1   
    14     5     9 1   
    15     5    10 3   
    16     6    28 1   
    17     6    29 1   
    18     6    30 1   
    19     7    31 1   
    20     7    32 1   
    21     7    33 1   
    22     8    12 ar  
    23     8    23 ar  
    24     9    12 ar  
    25     9    22 ar  
    26    10    11 1   
    27    11    21 ar  
    28    13    22 ar  
    29    13    23 ar  
    30    14    23 1   
    31    14    38 1   
    32    14    39 1   
    33    15    16 ar  
    34    15    34 1   
    35    16    17 1   
    36    16    20 ar  
    37    17    18 1   
    38    17    19 1   
    39    20    21 ar  
    40    20    35 1   
    41    21    36 1   
    42    22    37 1   
    43    38    40 1   
    44    38    41 1   
    45    38    42 1   
    46    39    43 1   
    47    39    44 1   
    48    39    45 1   
@<TRIPOS>SUBSTRUCTURE
     1 R62         1 TEMP              0 ****  ****    0 ROOT
