@<TRIPOS>MOLECULE
R63
   41    43     1     0     0
SMALL
No Charge or Current Charge


@<TRIPOS>ATOM
      1 C10        142.2500   175.0680   169.7200 ca         1 R63       0.028800
      2 C13        145.8460   175.6190   169.1500 ca         1 R63       0.310900
      3 C15        146.1370   177.5620   170.4500 ca         1 R63       0.263500
      4 C21        138.3710   173.3090   169.4220 c3         1 R63       0.143900
      5 C01        143.5330   179.8160   170.9490 c3         1 R63      -0.088100
      6 C03        144.7580   177.5810   170.8570 ca         1 R63       0.002700
      7 C04        143.9250   176.5480   170.3420 cp         1 R63      -0.062000
      8 C05        142.4900   176.2200   170.4600 cp         1 R63      -0.115000
      9 C06        141.4050   176.8390   171.1180 ca         1 R63      -0.033000
     10 C07        140.1110   176.2740   171.0310 ca         1 R63       0.037100
     11 C08        139.9000   175.0720   170.2660 ca         1 R63       0.166100
     12 C09        140.9980   174.4700   169.5990 ca         1 R63      -0.239000
     13 C12        144.4980   175.5890   169.5120 ca         1 R63      -0.050200
     14 C16        147.1150   178.6380   170.9210 c          1 R63       0.512600
     15 C19        148.7750   180.2470   170.2100 c3         1 R63       0.148900
     16 C23        137.7360   176.5860   171.7760 c3         1 R63       0.147900
     17 N11        143.4740   174.6980   169.1570 na         1 R63      -0.217600
     18 N14        146.6540   176.6020   169.6100 nb         1 R63      -0.612000
     19 O17        147.3690   178.8560   172.1030 o          1 R63      -0.495000
     20 O18        147.7880   179.2500   169.8870 os         1 R63      -0.410100
     21 O20        138.6390   174.5070   170.1720 os         1 R63      -0.320100
     22 O22        139.1220   176.9680   171.7220 os         1 R63      -0.342100
     23 H1         146.2840   174.8710   168.4910 h4         1 R63       0.026100
     24 H2         137.3080   173.0490   169.4920 h1         1 R63       0.043700
     25 H3         138.6170   173.4490   168.3620 h1         1 R63       0.043700
     26 H4         138.9530   172.4650   169.8130 h1         1 R63       0.043700
     27 H5         143.1020   180.5670   171.6220 hc         1 R63       0.037367
     28 H6         144.2740   180.3120   170.3100 hc         1 R63       0.037367
     29 H7         142.7330   179.4270   170.3080 hc         1 R63       0.037367
     30 H8         144.9530   179.1210   172.4080 hc         1 R63       0.068200
     31 H9         143.4710   178.2560   172.4630 hc         1 R63       0.068200
     32 H10        141.5350   177.7510   171.6870 ha         1 R63       0.135000
     33 H11        140.8950   173.5700   169.0000 ha         1 R63       0.124000
     34 H12        149.2230   180.6510   169.2930 h1         1 R63       0.047367
     35 H13        148.3230   181.0800   170.7630 h1         1 R63       0.047367
     36 H14        149.5800   179.8170   170.8210 h1         1 R63       0.047367
     37 H15        137.1720   177.3020   172.3860 h1         1 R63       0.034033
     38 H16        137.2920   176.5780   170.7720 h1         1 R63       0.034033
     39 H17        137.6200   175.5940   172.2310 h1         1 R63       0.034033
     40 H18        143.6020   173.8870   168.5610 hn         1 R63       0.359000
     41 C02        144.1920   178.6820   171.7590 c3         1 R63      -0.046100
@<TRIPOS>BOND
     1     1     8 ar  
     2     1    12 ar  
     3     1    17 1   
     4     2    13 ar  
     5     2    18 ar  
     6     2    23 1   
     7     3     6 ar  
     8     3    14 1   
     9     3    18 ar  
    10     4    21 1   
    11     4    24 1   
    12     4    25 1   
    13     4    26 1   
    14     5    27 1   
    15     5    28 1   
    16     5    29 1   
    17     5    41 1   
    18     6     7 ar  
    19     6    41 1   
    20     7     8 1   
    21     7    13 ar  
    22     8     9 ar  
    23     9    10 ar  
    24     9    32 1   
    25    10    11 ar  
    26    10    22 1   
    27    11    12 ar  
    28    11    21 1   
    29    12    33 1   
    30    13    17 1   
    31    14    19 2   
    32    14    20 1   
    33    15    20 1   
    34    15    34 1   
    35    15    35 1   
    36    15    36 1   
    37    16    22 1   
    38    16    37 1   
    39    16    38 1   
    40    16    39 1   
    41    17    40 1   
    42    30    41 1   
    43    31    41 1   
@<TRIPOS>SUBSTRUCTURE
     1 R63         1 TEMP              0 ****  ****    0 ROOT
