@<TRIPOS>MOLECULE
R63
   41    43     1     0     0
SMALL
abcg2


@<TRIPOS>ATOM
      1 C10        142.2790   175.0390   169.7200 ca         1 R63       0.028800
      2 C13        145.6860   175.8760   168.9640 ca         1 R63       0.310900
      3 C15        145.9170   177.7080   170.3430 ca         1 R63       0.263500
      4 C21        138.6040   173.0340   169.7160 c3         1 R63       0.143900
      5 C01        143.1890   179.6910   171.0600 c3         1 R63      -0.088100
      6 C03        144.6130   177.6400   170.8450 ca         1 R63       0.002700
      7 C04        143.8180   176.6090   170.3280 cp         1 R63      -0.062000
      8 C05        142.4580   176.1730   170.5310 cp         1 R63      -0.115000
      9 C06        141.3770   176.6090   171.3070 ca         1 R63      -0.033000
     10 C07        140.1880   175.9200   171.2720 ca         1 R63       0.037100
     11 C08        140.0300   174.7760   170.4440 ca         1 R63       0.166100
     12 C09        141.0820   174.3300   169.6610 ca         1 R63      -0.239000
     13 C12        144.3740   175.7150   169.3930 ca         1 R63      -0.050200
     14 C16        146.9000   178.7320   170.8130 c          1 R63       0.512600
     15 C19        148.7720   180.0090   170.1970 c3         1 R63       0.148900
     16 C23        138.2540   177.2270   171.4350 c3         1 R63       0.147900
     17 N11        143.4430   174.7860   169.0440 na         1 R63      -0.217600
     18 N14        146.4180   176.8600   169.4310 nb         1 R63      -0.612000
     19 O17        146.9450   179.1930   171.9280 o          1 R63      -0.495000
     20 O18        147.7520   179.0720   169.8580 os         1 R63      -0.410100
     21 O20        138.8260   174.1940   170.4940 os         1 R63      -0.320100
     22 O22        139.1450   176.3130   172.0550 os         1 R63      -0.342100
     23 H1         146.1370   175.2050   168.2400 h4         1 R63       0.026100
     24 H2         137.5820   172.7210   169.9130 h1         1 R63       0.043700
     25 H3         138.7120   173.2340   168.6470 h1         1 R63       0.043700
     26 H4         139.2820   172.2230   169.9950 h1         1 R63       0.043700
     27 H5         142.7030   180.3630   171.7680 hc         1 R63       0.037367
     28 H6         143.8330   180.2910   170.4170 hc         1 R63       0.037367
     29 H7         142.4130   179.2490   170.4330 hc         1 R63       0.037367
     30 H8         144.7570   179.1090   172.4080 hc         1 R63       0.068200
     31 H9         143.3570   178.0890   172.4990 hc         1 R63       0.068200
     32 H10        141.4470   177.4760   171.9500 ha         1 R63       0.135000
     33 H11        140.9970   173.4610   169.0230 ha         1 R63       0.124000
     34 H12        149.3610   180.1460   169.2940 h1         1 R63       0.047367
     35 H13        148.3510   180.9680   170.5010 h1         1 R63       0.047367
     36 H14        149.4140   179.6330   170.9930 h1         1 R63       0.047367
     37 H15        137.4670   177.4490   172.1540 h1         1 R63       0.034033
     38 H16        138.7590   178.1600   171.1690 h1         1 R63       0.034033
     39 H17        137.7960   176.8090   170.5340 h1         1 R63       0.034033
     40 H18        143.5880   174.0250   168.3990 hn         1 R63       0.359000
     41 C02        144.0010   178.6270   171.8000 c3         1 R63      -0.046100
@<TRIPOS>BOND
     1     1     8 ar  
     2     1    12 ar  
     3     1    17 1   
     4     2    13 ar  
     5     2    18 ar  
     6     2    23 1   
     7     3     6 ar  
     8     3    14 1   
     9     3    18 ar  
    10     4    21 1   
    11     4    24 1   
    12     4    25 1   
    13     4    26 1   
    14     5    27 1   
    15     5    28 1   
    16     5    29 1   
    17     5    41 1   
    18     6     7 ar  
    19     6    41 1   
    20     7     8 1   
    21     7    13 ar  
    22     8     9 ar  
    23     9    10 ar  
    24     9    32 1   
    25    10    11 ar  
    26    10    22 1   
    27    11    12 ar  
    28    11    21 1   
    29    12    33 1   
    30    13    17 1   
    31    14    19 2   
    32    14    20 1   
    33    15    20 1   
    34    15    34 1   
    35    15    35 1   
    36    15    36 1   
    37    16    22 1   
    38    16    37 1   
    39    16    38 1   
    40    16    39 1   
    41    17    40 1   
    42    30    41 1   
    43    31    41 1   
@<TRIPOS>SUBSTRUCTURE
     1 R63         1 TEMP              0 ****  ****    0 ROOT
