@<TRIPOS>MOLECULE
R64
   54    57     1     0     0
SMALL
No Charge or Current Charge


@<TRIPOS>ATOM
      1 O1          -1.2430     0.2450     4.1230 os         1 R64      -0.124200
      2 C2           0.0560     0.2100     3.6100 cc         1 R64      -0.085100
      3 C3           0.0210     0.1240     2.2180 cd         1 R64      -0.010400
      4 C4          -1.3700     0.1680     1.8390 ca         1 R64      -0.176800
      5 C5          -2.0300     0.1630     0.5970 ca         1 R64       0.212100
      6 C6          -3.4460     0.2170     0.6070 ca         1 R64      -0.244000
      7 C7          -4.1550     0.2760     1.8290 ca         1 R64      -0.039000
      8 C8          -3.4580     0.2870     3.0530 ca         1 R64      -0.151000
      9 C9          -2.0610     0.2350     3.0200 ca         1 R64       0.121100
     10 C10          1.2800     0.1920     4.4800 c          1 R64       0.557800
     11 O30          2.3930     0.3900     3.9920 o          1 R64      -0.535100
     12 C31          1.1100    -0.1230     5.9560 cc         1 R64       0.312000
     13 N32          2.1320    -0.1770     6.9080 na         1 R64      -0.120500
     14 C30          3.5680     0.0700     6.6850 c3         1 R64       0.059900
     15 C33          1.5730    -0.5020     8.1250 cc         1 R64      -0.217000
     16 C34          0.2360    -0.6420     7.8940 cd         1 R64       0.224900
     17 N35         -0.0450    -0.4120     6.5680 nd         1 R64      -0.615000
     18 C11          1.1990    -0.0200     1.2780 c3         1 R64      -0.032900
     19 O12         -1.3000     0.1230    -0.5720 os         1 R64      -0.337100
     20 C13         -1.9230     0.1200    -1.8660 c3         1 R64       0.163600
     21 C14         -0.8020     0.0670    -2.9200 c3         1 R64      -0.085400
     22 C15         -1.3480     0.0600    -4.3590 c3         1 R64       0.160800
     23 N16         -0.2370    -0.0080    -5.3220 n7         1 R64      -0.862400
     24 C17         -0.6380    -0.0540    -6.7390 c3         1 R64       0.211100
     25 C18          0.5860    -0.1230    -7.6340 ca         1 R64      -0.144300
     26 C19          1.4680    -1.2180    -7.5730 ca         1 R64      -0.051000
     27 C20          2.5760    -1.2300    -8.4350 ca         1 R64      -0.168000
     28 C21          2.7650    -0.1590    -9.3250 ca         1 R64       0.335900
     29 N22          1.9210     0.8960    -9.3940 nb         1 R64      -0.666000
     30 C23          0.8530     0.9050    -8.5600 ca         1 R64       0.336900
     31 HC6         -4.0140     0.2160    -0.3190 ha         1 R64       0.118000
     32 HC7         -5.2430     0.3170     1.8250 ha         1 R64       0.114000
     33 HC8         -3.9890     0.3370     4.0000 ha         1 R64       0.138000
     34 H301         3.9630    -0.6620     5.9700 h1         1 R64       0.061700
     35 H302         3.7130     1.0830     6.2900 h1         1 R64       0.061700
     36 H303         4.1150    -0.0250     7.6320 h1         1 R64       0.061700
     37 HC33         2.1460    -0.6080     9.0380 h4         1 R64       0.158000
     38 HC34        -0.5400    -0.8960     8.6060 h4         1 R64       0.043100
     39 H111         1.6460     0.9560     1.0560 hc         1 R64       0.056033
     40 H112         1.9780    -0.6620     1.7030 hc         1 R64       0.056033
     41 H113         0.9160    -0.4840     0.3280 hc         1 R64       0.056033
     42 H131        -2.5760    -0.7550    -1.9800 h1         1 R64       0.037200
     43 H132        -2.5200     1.0300    -2.0110 h1         1 R64       0.037200
     44 H141        -0.1410     0.9310    -2.7830 hc         1 R64       0.063700
     45 H142        -0.2010    -0.8360    -2.7570 hc         1 R64       0.063700
     46 H151        -2.0150    -0.8050    -4.4840 h1         1 R64       0.030700
     47 H152        -1.9430     0.9700    -4.5230 h1         1 R64       0.030700
     48 HN16         0.3570     0.8190    -5.1900 hn         1 R64       0.414000
     49 H171        -1.2660    -0.9350    -6.9310 h1         1 R64       0.039200
     50 H172        -1.2310     0.8350    -6.9970 h1         1 R64       0.039200
     51 HC19         1.2970    -2.0340    -6.8730 ha         1 R64       0.133000
     52 HC20         3.2830    -2.0550    -8.4200 ha         1 R64       0.124000
     53 HC21         3.6170    -0.1460   -10.0040 h4         1 R64       0.019100
     54 HC23         0.1910     1.7670    -8.6400 h4         1 R64       0.014100
@<TRIPOS>BOND
     1     1     2 1   
     2     1     9 1   
     3     2     3 2   
     4     2    10 1   
     5     3     4 1   
     6     3    18 1   
     7     4     5 ar  
     8     4     9 ar  
     9     5     6 ar  
    10     5    19 1   
    11     6     7 ar  
    12     6    31 1   
    13     7     8 ar  
    14     7    32 1   
    15     8     9 ar  
    16     8    33 1   
    17    10    11 2   
    18    10    12 1   
    19    12    13 1   
    20    12    17 2   
    21    13    14 1   
    22    13    15 1   
    23    14    34 1   
    24    14    35 1   
    25    14    36 1   
    26    15    16 2   
    27    15    37 1   
    28    16    17 1   
    29    16    38 1   
    30    18    39 1   
    31    18    40 1   
    32    18    41 1   
    33    19    20 1   
    34    20    21 1   
    35    20    42 1   
    36    20    43 1   
    37    21    22 1   
    38    21    44 1   
    39    21    45 1   
    40    22    23 1   
    41    22    46 1   
    42    22    47 1   
    43    23    24 1   
    44    23    48 1   
    45    24    25 1   
    46    24    49 1   
    47    24    50 1   
    48    25    26 ar  
    49    25    30 ar  
    50    26    27 ar  
    51    26    51 1   
    52    27    28 ar  
    53    27    52 1   
    54    28    29 ar  
    55    28    53 1   
    56    29    30 ar  
    57    30    54 1   
@<TRIPOS>SUBSTRUCTURE
     1 R64         1 TEMP              0 ****  ****    0 ROOT
