@<TRIPOS>MOLECULE
R64
   54    57     1     0     0
SMALL
abcg2


@<TRIPOS>ATOM
      1 O1          -1.0570     0.2560     4.0390 os         1 R64      -0.124200
      2 C2           0.2190     0.1140     3.5750 cc         1 R64      -0.085100
      3 C3           0.2590     0.1020     2.2090 cd         1 R64      -0.010400
      4 C4          -1.1090     0.2480     1.8000 ca         1 R64      -0.176800
      5 C5          -1.7680     0.3080     0.5570 ca         1 R64       0.212100
      6 C6          -3.1470     0.4590     0.5610 ca         1 R64      -0.244000
      7 C7          -3.8560     0.5530     1.7690 ca         1 R64      -0.039000
      8 C8          -3.2380     0.5020     3.0020 ca         1 R64      -0.151000
      9 C9          -1.8590     0.3430     2.9710 ca         1 R64       0.121100
     10 C10          1.3110     0.0350     4.5450 c          1 R64       0.557800
     11 O30          2.4530     0.3130     4.2140 o          1 R64      -0.535100
     12 C31          1.0060    -0.4090     5.9090 cc         1 R64       0.312000
     13 N32          1.8490    -0.2260     6.9650 na         1 R64      -0.120500
     14 C30          3.1120     0.4890     7.0190 c3         1 R64       0.059900
     15 C33          1.2740    -0.8320     8.0290 cc         1 R64      -0.217000
     16 C34          0.0960    -1.3750     7.5750 cd         1 R64       0.224900
     17 N35         -0.0590    -1.1010     6.2650 nd         1 R64      -0.615000
     18 C11          1.4370    -0.0550     1.3120 c3         1 R64      -0.032900
     19 O12         -1.0040     0.2180    -0.5370 os         1 R64      -0.337100
     20 C13         -1.6290     0.2250    -1.8120 c3         1 R64       0.163600
     21 C14         -0.5530     0.1370    -2.8720 c3         1 R64      -0.085400
     22 C15         -1.1710     0.0780    -4.2610 c3         1 R64       0.160800
     23 N16         -0.1430     0.0250    -5.2830 n7         1 R64      -0.862400
     24 C17         -0.6930    -0.0640    -6.6210 c3         1 R64       0.211100
     25 C18          0.3930    -0.1790    -7.6530 ca         1 R64      -0.144300
     26 C19          1.4550    -1.0650    -7.4990 ca         1 R64      -0.051000
     27 C20          2.4150    -1.1490    -8.4930 ca         1 R64      -0.168000
     28 C21          2.2840    -0.3390    -9.6130 ca         1 R64       0.335900
     29 N22          1.2840     0.5180    -9.7730 nb         1 R64      -0.666000
     30 C23          0.3710     0.5900    -8.8100 ca         1 R64       0.336900
     31 HC6         -3.7050     0.5110    -0.3630 ha         1 R64       0.118000
     32 HC7         -4.9300     0.6700     1.7210 ha         1 R64       0.114000
     33 HC8         -3.7920     0.5730     3.9270 ha         1 R64       0.138000
     34 H301         3.8870    -0.0490     6.4810 h1         1 R64       0.061700
     35 H302         3.0080     1.4840     6.5960 h1         1 R64       0.061700
     36 H303         3.4020     0.5820     8.0610 h1         1 R64       0.061700
     37 HC33         1.7290    -0.8210     9.0060 h4         1 R64       0.158000
     38 HC34        -0.6310    -1.9400     8.1370 h4         1 R64       0.043100
     39 H111         1.6810     0.8940     0.8320 hc         1 R64       0.056033
     40 H112         2.3170    -0.3910     1.8500 hc         1 R64       0.056033
     41 H113         1.2200    -0.7680     0.5190 hc         1 R64       0.056033
     42 H131        -2.3200    -0.6220    -1.8940 h1         1 R64       0.037200
     43 H132        -2.2150     1.1420    -1.9390 h1         1 R64       0.037200
     44 H141         0.1060     1.0070    -2.7950 hc         1 R64       0.063700
     45 H142         0.0600    -0.7520    -2.7120 hc         1 R64       0.063700
     46 H151        -1.7840    -0.8240    -4.3480 h1         1 R64       0.030700
     47 H152        -1.8580     0.9290    -4.3970 h1         1 R64       0.030700
     48 HN16         0.4300     0.8580    -5.2190 hn         1 R64       0.414000
     49 H171        -1.3230    -0.9590    -6.6670 h1         1 R64       0.039200
     50 H172        -1.3520     0.7800    -6.8760 h1         1 R64       0.039200
     51 HC19         1.5260    -1.6770    -6.6080 ha         1 R64       0.133000
     52 HC20         3.2520    -1.8290    -8.4070 ha         1 R64       0.124000
     53 HC21         3.0180    -0.3850   -10.4100 h4         1 R64       0.019100
     54 HC23        -0.4340     1.3040    -8.9630 h4         1 R64       0.014100
@<TRIPOS>BOND
     1     1     2 1   
     2     1     9 1   
     3     2     3 2   
     4     2    10 1   
     5     3     4 1   
     6     3    18 1   
     7     4     5 ar  
     8     4     9 ar  
     9     5     6 ar  
    10     5    19 1   
    11     6     7 ar  
    12     6    31 1   
    13     7     8 ar  
    14     7    32 1   
    15     8     9 ar  
    16     8    33 1   
    17    10    11 2   
    18    10    12 1   
    19    12    13 1   
    20    12    17 2   
    21    13    14 1   
    22    13    15 1   
    23    14    34 1   
    24    14    35 1   
    25    14    36 1   
    26    15    16 2   
    27    15    37 1   
    28    16    17 1   
    29    16    38 1   
    30    18    39 1   
    31    18    40 1   
    32    18    41 1   
    33    19    20 1   
    34    20    21 1   
    35    20    42 1   
    36    20    43 1   
    37    21    22 1   
    38    21    44 1   
    39    21    45 1   
    40    22    23 1   
    41    22    46 1   
    42    22    47 1   
    43    23    24 1   
    44    23    48 1   
    45    24    25 1   
    46    24    49 1   
    47    24    50 1   
    48    25    26 ar  
    49    25    30 ar  
    50    26    27 ar  
    51    26    51 1   
    52    27    28 ar  
    53    27    52 1   
    54    28    29 ar  
    55    28    53 1   
    56    29    30 ar  
    57    30    54 1   
@<TRIPOS>SUBSTRUCTURE
     1 R64         1 TEMP              0 ****  ****    0 ROOT
