@<TRIPOS>MOLECULE
R66
   39    42     1     0     0
SMALL
abcg2


@<TRIPOS>ATOM
      1 N1         -17.0400     3.9210    25.7980 nb         1 R66      -0.657000
      2 C4         -18.9220     5.0160    26.8150 ca         1 R66      -0.083000
      3 C5         -18.2330     3.8910    26.4440 ca         1 R66       0.338900
      4 C6         -16.5250     5.0980    25.5180 ca         1 R66       0.366900
      5 C7         -17.1370     6.3300    25.8500 ca         1 R66      -0.095000
      6 C8         -16.5470     7.5750    25.5310 ca         1 R66      -0.081000
      7 C10        -18.4210     8.7090    26.5450 ca         1 R66      -0.088000
      8 C13        -22.1870     4.3060    30.3760 ca         1 R66      -0.093300
      9 C15        -23.3450     4.0900    32.4830 ca         1 R66      -0.102000
     10 C17        -22.0470     2.2720    31.6460 ca         1 R66       0.125000
     11 CL         -21.4270     0.6410    31.8200 cl         1 R66      -0.208000
     12 C16        -22.8670     2.7960    32.6380 ca         1 R66      -0.093000
     13 C14        -23.0080     4.8430    31.3620 ca         1 R66      -0.090000
     14 C18        -21.7020     3.0050    30.5230 ca         1 R66      -0.084000
     15 C          -21.8250     5.0880    29.1320 c5         1 R66       0.149300
     16 O          -22.1690     6.4710    29.2270 oh         1 R66      -0.653000
     17 C3         -20.3100     5.0450    28.8160 c          1 R66       0.533000
     18 O1         -19.4090     5.2030    29.6270 o          1 R66      -0.520000
     19 N          -20.1710     4.8910    27.4800 n          1 R66      -0.243400
     20 C2         -21.4420     4.8320    26.7460 c5         1 R66       0.110000
     21 C1         -22.4630     4.5430    27.8500 c5         1 R66      -0.082400
     22 C12        -18.3870     6.2980    26.5270 ca         1 R66      -0.007000
     23 C11        -19.0170     7.5160    26.8690 ca         1 R66      -0.100000
     24 C9         -17.1790     8.7430    25.8720 ca         1 R66      -0.109000
     25 H1         -18.6430     2.9130    26.6690 h4         1 R66       0.027100
     26 H2         -15.5690     5.1110    25.0010 h4         1 R66       0.022100
     27 H3         -15.5940     7.5870    25.0160 ha         1 R66       0.119000
     28 H4         -18.9070     9.6400    26.8080 ha         1 R66       0.117000
     29 H5         -23.9860     4.5140    33.2450 ha         1 R66       0.121000
     30 H6         -23.1220     2.2050    33.5070 ha         1 R66       0.132000
     31 H7         -23.3900     5.8480    31.2520 ha         1 R66       0.126000
     32 H8         -21.0630     2.5640    29.7700 ha         1 R66       0.133000
     33 H9         -21.6470     6.8740    29.9360 ho         1 R66       0.462000
     34 H10        -21.6240     5.7850    26.2440 h1         1 R66       0.057200
     35 H11        -21.4020     4.0440    25.9960 h1         1 R66       0.057200
     36 H12        -23.4280     5.0120    27.6690 hc         1 R66       0.074700
     37 H13        -22.6090     3.4690    27.9460 hc         1 R66       0.074700
     38 H14        -19.9670     7.5030    27.3850 ha         1 R66       0.126000
     39 H15        -16.7300     9.6970    25.6280 ha         1 R66       0.118000
@<TRIPOS>BOND
     1     1     3 ar  
     2     1     4 ar  
     3     2     3 ar  
     4     2    19 1   
     5     2    22 ar  
     6     3    25 1   
     7     4     5 ar  
     8     4    26 1   
     9     5     6 ar  
    10     5    22 ar  
    11     6    24 ar  
    12     6    27 1   
    13     7    23 ar  
    14     7    24 ar  
    15     7    28 1   
    16     8    13 ar  
    17     8    14 ar  
    18     8    15 1   
    19     9    12 ar  
    20     9    13 ar  
    21     9    29 1   
    22    10    11 1   
    23    10    12 ar  
    24    10    14 ar  
    25    12    30 1   
    26    13    31 1   
    27    14    32 1   
    28    15    16 1   
    29    15    17 1   
    30    15    21 1   
    31    16    33 1   
    32    17    18 2   
    33    17    19 1   
    34    19    20 1   
    35    20    21 1   
    36    20    34 1   
    37    20    35 1   
    38    21    36 1   
    39    21    37 1   
    40    22    23 ar  
    41    23    38 1   
    42    24    39 1   
@<TRIPOS>SUBSTRUCTURE
     1 R66         1 TEMP              0 ****  ****    0 ROOT
