@<TRIPOS>MOLECULE
R66
   39    42     1     0     0
SMALL
No Charge or Current Charge


@<TRIPOS>ATOM
      1 N1         -17.6960     3.8920    25.2220 nb         1 R66      -0.657000
      2 C4         -19.3270     5.2720    26.4140 ca         1 R66      -0.083000
      3 C5         -18.8920     4.0570    25.8320 ca         1 R66       0.338900
      4 C6         -16.8500     4.9440    25.2110 ca         1 R66       0.366900
      5 C7         -17.1520     6.1800    25.8120 ca         1 R66      -0.095000
      6 C8         -16.2170     7.2330    25.7860 ca         1 R66      -0.081000
      7 C10        -17.7830     8.6520    26.9900 ca         1 R66      -0.088000
      8 C13        -22.1770     4.4050    30.3640 ca         1 R66      -0.093300
      9 C15        -23.4690     3.8240    32.3710 ca         1 R66      -0.102000
     10 C17        -21.3530     2.7190    31.9450 ca         1 R66       0.125000
     11 Cl         -20.1210     1.5530    32.4110 cl         1 R66      -0.208000
     12 C16        -22.4820     2.9030    32.7540 ca         1 R66      -0.093000
     13 C14        -23.3200     4.5650    31.1850 ca         1 R66      -0.090000
     14 C18        -21.2020     3.4570    30.7590 ca         1 R66      -0.084000
     15 C          -22.0250     5.2070    29.0540 c5         1 R66       0.149300
     16 O          -22.7450     6.4540    29.0980 oh         1 R66      -0.653000
     17 C3         -20.5480     5.4620    28.6090 c          1 R66       0.533000
     18 O1         -19.5780     5.7510    29.3020 o          1 R66      -0.520000
     19 N          -20.5280     5.2600    27.2170 n          1 R66      -0.243400
     20 C2         -21.8120     4.7660    26.6700 c5         1 R66       0.110000
     21 C1         -22.5720     4.2740    27.9350 c5         1 R66      -0.082400
     22 C12        -18.4060     6.3510    26.4410 ca         1 R66      -0.007000
     23 C11        -18.7190     7.6040    27.0160 ca         1 R66      -0.100000
     24 C9         -16.5320     8.4660    26.3800 ca         1 R66      -0.109000
     25 H1         -19.5240     3.1710    25.8700 h4         1 R66       0.027100
     26 H2         -15.8920     4.7850    24.7150 h4         1 R66       0.022100
     27 H3         -15.2500     7.0990    25.3060 ha         1 R66       0.119000
     28 H4         -18.0310     9.6120    27.4380 ha         1 R66       0.117000
     29 H5         -24.3520     3.9630    32.9910 ha         1 R66       0.121000
     30 H6         -22.5960     2.3280    33.6700 ha         1 R66       0.132000
     31 H7         -24.1070     5.2610    30.9040 ha         1 R66       0.126000
     32 H8         -20.3210     3.2790    30.1490 ha         1 R66       0.133000
     33 H9         -22.3730     6.9710    29.8480 ho         1 R66       0.462000
     34 H10        -22.3500     5.5910    26.1840 h1         1 R66       0.057200
     35 H11        -21.6820     3.9640    25.9320 h1         1 R66       0.057200
     36 H12        -23.6600     4.3260    27.8230 hc         1 R66       0.074700
     37 H13        -22.3200     3.2240    28.1290 hc         1 R66       0.074700
     38 H14        -19.6900     7.7830    27.4690 ha         1 R66       0.126000
     39 H15        -15.8100     9.2800    26.3600 ha         1 R66       0.118000
@<TRIPOS>BOND
     1     1     3 ar  
     2     1     4 ar  
     3     2     3 ar  
     4     2    19 1   
     5     2    22 ar  
     6     3    25 1   
     7     4     5 ar  
     8     4    26 1   
     9     5     6 ar  
    10     5    22 ar  
    11     6    24 ar  
    12     6    27 1   
    13     7    23 ar  
    14     7    24 ar  
    15     7    28 1   
    16     8    13 ar  
    17     8    14 ar  
    18     8    15 1   
    19     9    12 ar  
    20     9    13 ar  
    21     9    29 1   
    22    10    11 1   
    23    10    12 ar  
    24    10    14 ar  
    25    12    30 1   
    26    13    31 1   
    27    14    32 1   
    28    15    16 1   
    29    15    17 1   
    30    15    21 1   
    31    16    33 1   
    32    17    18 2   
    33    17    19 1   
    34    19    20 1   
    35    20    21 1   
    36    20    34 1   
    37    20    35 1   
    38    21    36 1   
    39    21    37 1   
    40    22    23 ar  
    41    23    38 1   
    42    24    39 1   
@<TRIPOS>SUBSTRUCTURE
     1 R66         1 TEMP              0 ****  ****    0 ROOT
