@<TRIPOS>MOLECULE
R67
   15    14     1     0     0
SMALL
bcc


@<TRIPOS>ATOM
      1 C01          2.7910     1.3610    -0.0200 c3         1 R67      -0.246300
      2 C04          0.0680     0.7470     0.0330 c3         1 R67      -0.268600
      3 C05         -1.0500    -0.2760     0.0580 c          1 R67       0.459100
      4 C06         -2.4910     0.3140     0.0610 c          1 R67       0.873600
      5 O03          1.8420    -0.7670    -1.2410 o          1 R67      -0.603800
      6 O07         -3.4020    -0.5200     0.0620 o          1 R67      -0.786800
      7 O08         -2.5430     1.5530     0.0640 o          1 R67      -0.786800
      8 O09         -0.8340    -1.4590     0.0750 o          1 R67      -0.526100
      9 O10          1.8850    -0.7460     1.2710 o          1 R67      -0.603800
     10 S02          1.6830    -0.0310     0.0120 s6         1 R67       0.999000
     11 H1           2.6180     1.9500    -0.9180 h1         1 R67       0.088700
     12 H2           2.6440     1.9700     0.8690 h1         1 R67       0.088700
     13 H3           3.8030     0.9590    -0.0310 h1         1 R67       0.088700
     14 H4          -0.0150     1.3850    -0.8490 h1         1 R67       0.111700
     15 H5           0.0130     1.3960     0.9090 h1         1 R67       0.111700
@<TRIPOS>BOND
     1     1    10 1   
     2     1    11 1   
     3     1    12 1   
     4     1    13 1   
     5     2     3 1   
     6     2    10 1   
     7     2    14 1   
     8     2    15 1   
     9     3     4 1   
    10     3     8 2   
    11     4     6 1   
    12     4     7 1   
    13     5    10 2   
    14     9    10 2   
@<TRIPOS>SUBSTRUCTURE
     1 R67         1 TEMP              0 ****  ****    0 ROOT
