@<TRIPOS>MOLECULE
R67
   15    14     1     0     0
SMALL
No Charge or Current Charge


@<TRIPOS>ATOM
      1 C01          2.7420     1.3110    -0.2000 c3         1 R67      -0.357100
      2 C04          0.1140     0.8760     0.7150 c3         1 R67      -0.379400
      3 C05         -1.1100    -0.0280     0.7360 c          1 R67       0.459100
      4 C06         -2.0680    -0.0380    -0.5720 c          1 R67       0.663000
      5 O03          0.9440     0.0020    -1.6240 o          1 R67      -0.533000
      6 O07         -2.5930    -1.0990    -0.9050 o          1 R67      -0.681500
      7 O08         -2.2670     1.0250    -1.1570 o          1 R67      -0.681500
      8 O09         -1.3510    -0.7070     1.7350 o          1 R67      -0.526100
      9 O10          1.8550    -1.0820     0.4780 o          1 R67      -0.533000
     10 S02          1.4050     0.1170    -0.2370 s6         1 R67       1.079000
     11 H1           2.3770     2.2390    -0.6540 h1         1 R67       0.088700
     12 H2           3.0250     1.4680     0.8470 h1         1 R67       0.088700
     13 H3           3.5760     0.8950    -0.7750 h1         1 R67       0.088700
     14 H4          -0.1290     1.8290     0.2370 h1         1 R67       0.111700
     15 H5           0.4930     1.0280     1.7290 h1         1 R67       0.111700
@<TRIPOS>BOND
     1     1    10 1   
     2     1    11 1   
     3     1    12 1   
     4     1    13 1   
     5     2     3 1   
     6     2    10 1   
     7     2    14 1   
     8     2    15 1   
     9     3     4 1   
    10     3     8 2   
    11     4     6 1   
    12     4     7 1   
    13     5    10 2   
    14     9    10 2   
@<TRIPOS>SUBSTRUCTURE
     1 R67         1 TEMP              0 ****  ****    0 ROOT
