@<TRIPOS>MOLECULE
R68
   81    85     1     0     0
SMALL
No Charge or Current Charge


@<TRIPOS>ATOM
      1 O22          3.8310    -2.2620    -2.0900 o          1 R68      -0.609100
      2 C21          3.1970    -1.9000    -1.1090 c          1 R68       0.608700
      3 C14          1.6960    -2.0890    -1.0050 ca         1 R68      -0.116600
      4 C13          0.9880    -2.7320    -2.0450 ca         1 R68      -0.125500
      5 C12         -0.4080    -2.8670    -1.9660 ca         1 R68       0.331400
      6 N11         -1.1350    -2.4020    -0.9260 nb         1 R68      -0.672000
      7 C16         -0.4710    -1.7880     0.0780 ca         1 R68       0.331400
      8 C15          0.9250    -1.6120     0.0840 ca         1 R68      -0.125500
      9 N23          3.8080    -1.2540    -0.0550 ns         1 R68      -0.487900
     10 C31          5.1960    -0.7430    -0.0610 c3         1 R68       0.087700
     11 C32          6.1210    -1.7000     0.7450 c3         1 R68       0.164800
     12 N33          7.4370    -1.1380     1.1360 n7         1 R68      -0.883400
     13 C34          8.1880    -0.3750     0.1200 c3         1 R68       0.168800
     14 C35          7.8420     1.1260     0.2220 c3         1 R68      -0.069400
     15 C36          6.4330     1.5270    -0.2750 c3         1 R68      -0.082400
     16 C37          5.2520     0.7580     0.3710 c3         1 R68       0.105700
     17 N41          3.9870     1.4330     0.0400 ns         1 R68      -0.496900
     18 C42          3.3450     2.3560     0.8330 c          1 R68       0.608700
     19 O43          3.9020     2.8740     1.7910 o          1 R68      -0.608100
     20 C51          1.8960     2.6320     0.4850 ca         1 R68      -0.138600
     21 C52          1.2010     3.6700     1.1450 ca         1 R68      -0.087500
     22 C53         -0.1600     3.9060     0.8850 ca         1 R68      -0.073500
     23 C56          1.1880     1.8410    -0.4530 ca         1 R68      -0.087500
     24 C55         -0.1760     2.0650    -0.6970 ca         1 R68      -0.073500
     25 C54         -0.8680     3.0950    -0.0260 ca         1 R68      -0.142600
     26 C61         -2.3420     3.3210    -0.2690 c          1 R68       0.618300
     27 O62         -2.8850     4.3840     0.0070 o          1 R68      -0.484100
     28 C71         -3.1310     2.1820    -0.8240 ca         1 R68      -0.257600
     29 C72         -3.6350     2.2200    -2.1300 ca         1 R68       0.198100
     30 O82         -3.4070     3.3010    -2.9250 oh         1 R68      -0.518100
     31 C73         -4.3500     1.1280    -2.6360 ca         1 R68      -0.235000
     32 C74         -4.5740    -0.0050    -1.8340 ca         1 R68      -0.010000
     33 C75         -4.0870    -0.0510    -0.5120 ca         1 R68      -0.150300
     34 C76         -3.3520     1.0500    -0.0230 ca         1 R68       0.235000
     35 F89         -2.8630     1.0320     1.2390 f          1 R68      -0.174000
     36 C91         -4.3500    -1.2760     0.3840 c6         1 R68       0.234800
     37 C92         -5.7650    -1.2740     1.0850 c6         1 R68      -0.036000
     38 C97         -6.9440    -1.2040     0.0570 c3         1 R68      -0.083100
     39 C98         -5.9130    -0.0300     2.0150 c3         1 R68      -0.083100
     40 C93         -5.8860    -2.5640     1.9570 c6         1 R68      -0.071400
     41 C94         -5.5820    -3.8470     1.1430 c6         1 R68      -0.078400
     42 C95         -4.2040    -3.7410     0.4510 c6         1 R68       0.159800
     43 N96         -4.1040    -2.5230    -0.3800 n7         1 R68      -0.857400
     44 H13          1.5060    -3.1210    -2.9180 ha         1 R68       0.140000
     45 H12         -0.9640    -3.3580    -2.7640 h4         1 R68       0.025600
     46 H16         -1.0770    -1.4200     0.9050 h4         1 R68       0.025600
     47 H15          1.3730    -1.0990     0.9300 ha         1 R68       0.140000
     48 H23          3.2260    -1.0260     0.7390 hn         1 R68       0.325500
     49 H31          5.5480    -0.7720    -1.1010 h1         1 R68       0.076700
     50 H321         6.2680    -2.6060     0.1400 h1         1 R68       0.035200
     51 H322         5.5900    -2.0130     1.6540 h1         1 R68       0.035200
     52 H33          8.0250    -1.9240     1.4460 hn         1 R68       0.424000
     53 H341         8.0060    -0.7510    -0.8960 h1         1 R68       0.032200
     54 H342         9.2630    -0.4760     0.3180 h1         1 R68       0.032200
     55 H351         8.5820     1.6890    -0.3610 hc         1 R68       0.048700
     56 H352         7.9630     1.4510     1.2630 hc         1 R68       0.048700
     57 H361         6.3880     1.4090    -1.3650 hc         1 R68       0.046700
     58 H362         6.3050     2.5990    -0.0800 hc         1 R68       0.046700
     59 H37          5.3720     0.7890     1.4630 h1         1 R68       0.102700
     60 H41          3.4780     1.1000    -0.7670 hn         1 R68       0.324500
     61 H52          1.7150     4.2950     1.8720 ha         1 R68       0.130000
     62 H53         -0.6700     4.7090     1.4150 ha         1 R68       0.129000
     63 H56          1.6690     1.0280    -0.9890 ha         1 R68       0.130000
     64 H55         -0.6890     1.4290    -1.4160 ha         1 R68       0.129000
     65 H82         -3.8400     3.1410    -3.7900 ho         1 R68       0.471000
     66 H73         -4.7360     1.1440    -3.6520 ha         1 R68       0.121000
     67 H74         -5.1330    -0.8460    -2.2410 ha         1 R68       0.138000
     68 H91         -3.6000    -1.2640     1.1880 h1         1 R68       0.030700
     69 H971        -6.9680    -0.2420    -0.4680 hc         1 R68       0.036033
     70 H972        -6.8740    -1.9890    -0.7050 hc         1 R68       0.036033
     71 H973        -7.9140    -1.3190     0.5560 hc         1 R68       0.036033
     72 H981        -6.8660    -0.0480     2.5590 hc         1 R68       0.036033
     73 H982        -5.1110     0.0090     2.7620 hc         1 R68       0.036033
     74 H983        -5.8810     0.9090     1.4490 hc         1 R68       0.036033
     75 H931        -5.1820    -2.5070     2.7990 hc         1 R68       0.039200
     76 H932        -6.8880    -2.6360     2.4020 hc         1 R68       0.039200
     77 H941        -5.5940    -4.7210     1.8080 hc         1 R68       0.044700
     78 H942        -6.3650    -4.0200     0.3930 hc         1 R68       0.044700
     79 H951        -3.4130    -3.7220     1.2150 h1         1 R68       0.029200
     80 H952        -4.0360    -4.6280    -0.1780 h1         1 R68       0.029200
     81 H96         -3.1360    -2.4710    -0.7360 hn         1 R68       0.431000
@<TRIPOS>BOND
     1     1     2 2   
     2     2     3 1   
     3     2     9 1   
     4     3     4 ar  
     5     3     8 ar  
     6     4     5 ar  
     7     4    44 1   
     8     5     6 ar  
     9     5    45 1   
    10     6     7 ar  
    11     7     8 ar  
    12     7    46 1   
    13     8    47 1   
    14     9    10 1   
    15     9    48 1   
    16    10    11 1   
    17    10    16 1   
    18    10    49 1   
    19    11    12 1   
    20    11    50 1   
    21    11    51 1   
    22    12    13 1   
    23    12    52 1   
    24    13    14 1   
    25    13    53 1   
    26    13    54 1   
    27    14    15 1   
    28    14    55 1   
    29    14    56 1   
    30    15    16 1   
    31    15    57 1   
    32    15    58 1   
    33    16    17 1   
    34    16    59 1   
    35    17    18 1   
    36    17    60 1   
    37    18    19 2   
    38    18    20 1   
    39    20    21 ar  
    40    20    23 ar  
    41    21    22 ar  
    42    21    61 1   
    43    22    25 ar  
    44    22    62 1   
    45    23    24 ar  
    46    23    63 1   
    47    24    25 ar  
    48    24    64 1   
    49    25    26 1   
    50    26    27 2   
    51    26    28 1   
    52    28    29 ar  
    53    28    34 ar  
    54    29    30 1   
    55    29    31 ar  
    56    30    65 1   
    57    31    32 ar  
    58    31    66 1   
    59    32    33 ar  
    60    32    67 1   
    61    33    34 ar  
    62    33    36 1   
    63    34    35 1   
    64    36    37 1   
    65    36    43 1   
    66    36    68 1   
    67    37    38 1   
    68    37    39 1   
    69    37    40 1   
    70    38    69 1   
    71    38    70 1   
    72    38    71 1   
    73    39    72 1   
    74    39    73 1   
    75    39    74 1   
    76    40    41 1   
    77    40    75 1   
    78    40    76 1   
    79    41    42 1   
    80    41    77 1   
    81    41    78 1   
    82    42    43 1   
    83    42    79 1   
    84    42    80 1   
    85    43    81 1   
@<TRIPOS>SUBSTRUCTURE
     1 R68         1 TEMP              0 ****  ****    0 ROOT
