@<TRIPOS>MOLECULE
R68
   81    85     1     0     0
SMALL
bcc


@<TRIPOS>ATOM
      1 O22          3.4420    -0.9480    -2.1670 o          1 R68      -0.609100
      2 C21          3.0930    -1.2990    -1.0490 c          1 R68       0.675700
      3 C14          1.6890    -1.7730    -0.8270 ca         1 R68      -0.116600
      4 C13          1.0190    -2.3720    -1.8870 ca         1 R68      -0.208800
      5 C12         -0.3100    -2.7220    -1.7220 ca         1 R68       0.396700
      6 N11         -0.9920    -2.4940    -0.6050 nb         1 R68      -0.672000
      7 C16         -0.3540    -1.9150     0.4020 ca         1 R68       0.396700
      8 C15          0.9830    -1.5450     0.3480 ca         1 R68      -0.208800
      9 N23          3.8980    -1.2640     0.0230 ns         1 R68      -0.554900
     10 C31          5.2330    -0.7160    -0.0300 c3         1 R68       0.087700
     11 C32          6.1330    -1.5600     0.8740 c3         1 R68       0.164800
     12 N33          7.3740    -0.8960     1.2010 n7         1 R68      -0.828200
     13 C34          8.1220    -0.3490     0.0790 c3         1 R68       0.168800
     14 C35          7.8220     1.1350    -0.1030 c3         1 R68      -0.069400
     15 C36          6.3950     1.4830    -0.5160 c3         1 R68      -0.082400
     16 C37          5.2910     0.8060     0.3020 c3         1 R68       0.105700
     17 N41          4.0280     1.4570     0.0270 ns         1 R68      -0.563900
     18 C42          3.1000     1.6800     0.9700 c          1 R68       0.675700
     19 O43          3.2790     1.4680     2.1610 o          1 R68      -0.608100
     20 C51          1.7740     2.1930     0.4990 ca         1 R68      -0.138600
     21 C52          1.0660     3.0630     1.3280 ca         1 R68      -0.105500
     22 C53         -0.2180     3.4530     0.9980 ca         1 R68      -0.091500
     23 C56          1.1760     1.7180    -0.6630 ca         1 R68      -0.105500
     24 C55         -0.1410     2.0380    -0.9480 ca         1 R68      -0.091500
     25 C54         -0.8450     2.9050    -0.1210 ca         1 R68      -0.142600
     26 C61         -2.2600     3.2350    -0.4240 c          1 R68       0.618300
     27 O62         -2.7230     4.3330    -0.2260 o          1 R68      -0.484100
     28 C71         -3.0810     2.1100    -0.9640 ca         1 R68      -0.257600
     29 C72         -3.6120     2.1240    -2.2520 ca         1 R68       0.198100
     30 O82         -3.3580     3.1990    -3.0130 oh         1 R68      -0.479100
     31 C73         -4.3350     1.0210    -2.7000 ca         1 R68      -0.253000
     32 C74         -4.5480    -0.0560    -1.8570 ca         1 R68      -0.028000
     33 C75         -4.0730    -0.0900    -0.5450 ca         1 R68      -0.150300
     34 C76         -3.3250     1.0060    -0.1590 ca         1 R68       0.199900
     35 F89         -2.8010     1.0500     1.0770 f          1 R68      -0.138900
     36 C91         -4.3540    -1.2460     0.3840 c6         1 R68       0.234800
     37 C92         -5.7570    -1.1740     1.0470 c6         1 R68      -0.036000
     38 C97         -6.8860    -1.1750     0.0170 c3         1 R68      -0.083100
     39 C98         -5.8730     0.0820     1.9070 c3         1 R68      -0.083100
     40 C93         -5.8800    -2.4050     1.9600 c6         1 R68      -0.071400
     41 C94         -5.6210    -3.7110     1.2210 c6         1 R68      -0.078400
     42 C95         -4.2690    -3.6520     0.5320 c6         1 R68       0.159800
     43 N96         -4.1940    -2.4950    -0.3450 n7         1 R68      -0.802200
     44 H13          1.5150    -2.5620    -2.8280 ha         1 R68       0.158000
     45 H12         -0.8510    -3.1970    -2.5320 h4         1 R68       0.025600
     46 H16         -0.9300    -1.7250     1.3000 h4         1 R68       0.025600
     47 H15          1.4240    -1.0520     1.2040 ha         1 R68       0.158000
     48 H23          3.5580    -1.6020     0.9100 hn         1 R68       0.325500
     49 H31          5.5670    -0.8330    -1.0630 h1         1 R68       0.076700
     50 H321         6.2750    -2.5320     0.3770 h1         1 R68       0.035200
     51 H322         5.6070    -1.7630     1.8130 h1         1 R68       0.035200
     52 H33          7.9500    -1.5320     1.7320 hn         1 R68       0.368800
     53 H341         7.9490    -0.9000    -0.8570 h1         1 R68       0.032200
     54 H342         9.1860    -0.4550     0.2960 h1         1 R68       0.032200
     55 H351         8.5030     1.5510    -0.8500 hc         1 R68       0.048700
     56 H352         8.0530     1.6330     0.8420 hc         1 R68       0.048700
     57 H361         6.2470     1.2320    -1.5730 hc         1 R68       0.046700
     58 H362         6.2720     2.5660    -0.4360 hc         1 R68       0.046700
     59 H37          5.4900     0.9320     1.3670 h1         1 R68       0.102700
     60 H41          3.8220     1.7000    -0.9300 hn         1 R68       0.324500
     61 H52          1.5220     3.4320     2.2360 ha         1 R68       0.148000
     62 H53         -0.7560     4.1380     1.6410 ha         1 R68       0.147000
     63 H56          1.7020     1.0560    -1.3380 ha         1 R68       0.148000
     64 H55         -0.6150     1.6080    -1.8210 ha         1 R68       0.147000
     65 H82         -3.7320     3.0860    -3.8940 ho         1 R68       0.432000
     66 H73         -4.7270     1.0020    -3.7100 ha         1 R68       0.139000
     67 H74         -5.1030    -0.9060    -2.2290 ha         1 R68       0.156000
     68 H91         -3.6340    -1.1960     1.2200 h1         1 R68       0.030700
     69 H971        -6.9110    -0.2450    -0.5530 hc         1 R68       0.036033
     70 H972        -6.7930    -1.9970    -0.6910 hc         1 R68       0.036033
     71 H973        -7.8510    -1.2710     0.5210 hc         1 R68       0.036033
     72 H981        -6.8230     0.0810     2.4470 hc         1 R68       0.036033
     73 H982        -5.0740     0.1430     2.6500 hc         1 R68       0.036033
     74 H983        -5.8480     0.9930     1.3060 hc         1 R68       0.036033
     75 H931        -5.1520    -2.3130     2.7750 hc         1 R68       0.039200
     76 H932        -6.8700    -2.4140     2.4260 hc         1 R68       0.039200
     77 H941        -5.6430    -4.5510     1.9180 hc         1 R68       0.044700
     78 H942        -6.4040    -3.8930     0.4790 hc         1 R68       0.044700
     79 H951        -3.4820    -3.6310     1.3050 h1         1 R68       0.029200
     80 H952        -4.1020    -4.5510    -0.0650 h1         1 R68       0.029200
     81 H96         -3.2640    -2.4870    -0.7530 hn         1 R68       0.375800
@<TRIPOS>BOND
     1     1     2 2   
     2     2     3 1   
     3     2     9 1   
     4     3     4 ar  
     5     3     8 ar  
     6     4     5 ar  
     7     4    44 1   
     8     5     6 ar  
     9     5    45 1   
    10     6     7 ar  
    11     7     8 ar  
    12     7    46 1   
    13     8    47 1   
    14     9    10 1   
    15     9    48 1   
    16    10    11 1   
    17    10    16 1   
    18    10    49 1   
    19    11    12 1   
    20    11    50 1   
    21    11    51 1   
    22    12    13 1   
    23    12    52 1   
    24    13    14 1   
    25    13    53 1   
    26    13    54 1   
    27    14    15 1   
    28    14    55 1   
    29    14    56 1   
    30    15    16 1   
    31    15    57 1   
    32    15    58 1   
    33    16    17 1   
    34    16    59 1   
    35    17    18 1   
    36    17    60 1   
    37    18    19 2   
    38    18    20 1   
    39    20    21 ar  
    40    20    23 ar  
    41    21    22 ar  
    42    21    61 1   
    43    22    25 ar  
    44    22    62 1   
    45    23    24 ar  
    46    23    63 1   
    47    24    25 ar  
    48    24    64 1   
    49    25    26 1   
    50    26    27 2   
    51    26    28 1   
    52    28    29 ar  
    53    28    34 ar  
    54    29    30 1   
    55    29    31 ar  
    56    30    65 1   
    57    31    32 ar  
    58    31    66 1   
    59    32    33 ar  
    60    32    67 1   
    61    33    34 ar  
    62    33    36 1   
    63    34    35 1   
    64    36    37 1   
    65    36    43 1   
    66    36    68 1   
    67    37    38 1   
    68    37    39 1   
    69    37    40 1   
    70    38    69 1   
    71    38    70 1   
    72    38    71 1   
    73    39    72 1   
    74    39    73 1   
    75    39    74 1   
    76    40    41 1   
    77    40    75 1   
    78    40    76 1   
    79    41    42 1   
    80    41    77 1   
    81    41    78 1   
    82    42    43 1   
    83    42    79 1   
    84    42    80 1   
    85    43    81 1   
@<TRIPOS>SUBSTRUCTURE
     1 R68         1 TEMP              0 ****  ****    0 ROOT
