@<TRIPOS>MOLECULE
R69
   68    71     1     0     0
SMALL
abcg2


@<TRIPOS>ATOM
      1 O22          2.6150     1.6050     1.4370 o          1 R69      -0.612100
      2 C21          2.9620     1.6390     0.2650 c          1 R69       0.612700
      3 C14          2.2070     2.4760    -0.7230 ca         1 R69      -0.118600
      4 C13          1.5870     3.6380    -0.2790 ca         1 R69      -0.129000
      5 C12          0.8660     4.3970    -1.1860 ca         1 R69       0.328900
      6 N11          0.7120     4.0620    -2.4620 nb         1 R69      -0.652000
      7 C16          1.2870     2.9410    -2.8770 ca         1 R69       0.328900
      8 C15          2.0460     2.1190    -2.0560 ca         1 R69      -0.129000
      9 N23          4.0130     0.9640    -0.2260 ns         1 R69      -0.489900
     10 C31          4.7860     0.0220     0.5480 c3         1 R69       0.090700
     11 C32          6.2550     0.1690     0.1370 c3         1 R69       0.164800
     12 N33          7.0570    -0.9860     0.4650 n7         1 R69      -0.883400
     13 C34          6.9920    -1.4430     1.8450 c3         1 R69       0.168800
     14 C35          5.9870    -2.5780     1.9890 c3         1 R69      -0.068400
     15 C36          4.5310    -2.2080     1.7330 c3         1 R69      -0.082400
     16 C37          4.2530    -1.4370     0.4390 c3         1 R69       0.107700
     17 N41          2.8250    -1.4470     0.2060 ns         1 R69      -0.495900
     18 C42          2.2720    -1.4260    -1.0150 c          1 R69       0.610700
     19 O43          2.9220    -1.4900    -2.0510 o          1 R69      -0.617100
     20 C51          0.7790    -1.3280    -1.0560 ca         1 R69      -0.137600
     21 C52          0.1080    -1.9190    -2.1250 ca         1 R69      -0.091500
     22 C53         -1.2680    -1.8320    -2.2200 ca         1 R69      -0.068500
     23 C56          0.0510    -0.6240    -0.1010 ca         1 R69      -0.091500
     24 C55         -1.3270    -0.5380    -0.1960 ca         1 R69      -0.068500
     25 C54         -2.0010    -1.1470    -1.2500 ca         1 R69      -0.133600
     26 C61         -3.4750    -1.0170    -1.4050 c          1 R69       0.607300
     27 O62         -3.9950    -1.1610    -2.4920 o          1 R69      -0.517100
     28 C71         -4.2950    -0.6370    -0.2210 ca         1 R69      -0.159600
     29 C72         -4.2370    -1.3500     0.9760 ca         1 R69       0.120100
     30 O92         -3.4230    -2.4260     1.0490 oh         1 R69      -0.530100
     31 C73         -5.0570    -0.9470     2.0220 ca         1 R69      -0.170000
     32 C74         -5.9090     0.1360     1.8890 ca         1 R69      -0.124000
     33 C76         -5.1790     0.4300    -0.3630 ca         1 R69      -0.107000
     34 C75         -5.9880     0.8690     0.6930 ca         1 R69       0.285000
     35 N95         -6.8120     1.9690     0.5680 nh         1 R69      -0.810400
     36 C98         -7.8140     2.2010     1.5810 c3         1 R69       0.204600
     37 C99         -7.0720     2.4910    -0.7530 c3         1 R69       0.204600
     38 H13          1.6670     3.9560     0.7510 ha         1 R69       0.140000
     39 H12          0.3900     5.3160    -0.8640 h4         1 R69       0.023600
     40 H16          1.1400     2.6740    -3.9170 h4         1 R69       0.023600
     41 H15          2.4630     1.2090    -2.4670 ha         1 R69       0.140000
     42 H23          4.2500     1.0750    -1.1990 hn         1 R69       0.326500
     43 H31          4.6780     0.3230     1.5920 h1         1 R69       0.074700
     44 H321         6.6250     1.1010     0.5870 h1         1 R69       0.035700
     45 H322         6.3080     0.3020    -0.9490 h1         1 R69       0.035700
     46 H33          8.0130    -0.7970     0.2040 hn         1 R69       0.423000
     47 H341         6.7700    -0.6310     2.5530 h1         1 R69       0.031700
     48 H342         7.9760    -1.8210     2.1250 h1         1 R69       0.031700
     49 H351         6.0570    -2.9980     2.9960 hc         1 R69       0.047700
     50 H352         6.2850    -3.3720     1.3000 hc         1 R69       0.047700
     51 H361         4.1490    -1.6170     2.5740 hc         1 R69       0.044700
     52 H362         3.9430    -3.1290     1.7150 hc         1 R69       0.044700
     53 H37          4.7310    -1.9370    -0.4050 h1         1 R69       0.098700
     54 H41          2.2230    -1.4420     1.0150 hn         1 R69       0.322500
     55 H52          0.6650    -2.4520    -2.8830 ha         1 R69       0.130500
     56 H53         -1.7770    -2.3030    -3.0500 ha         1 R69       0.130000
     57 H56          0.5460    -0.1100     0.7130 ha         1 R69       0.130500
     58 H55         -1.8710     0.0320     0.5460 ha         1 R69       0.130000
     59 H92         -3.4380    -2.7940     1.9400 ho         1 R69       0.463000
     60 H73         -5.0460    -1.4920     2.9590 ha         1 R69       0.113000
     61 H74         -6.5230     0.3980     2.7390 ha         1 R69       0.115000
     62 H76         -5.2000     0.9370    -1.3180 ha         1 R69       0.129000
     63 H981        -8.3530     3.1160     1.3490 h1         1 R69       0.036367
     64 H982        -8.5470     1.3890     1.6630 h1         1 R69       0.036367
     65 H983        -7.3610     2.3420     2.5640 h1         1 R69       0.036367
     66 H991        -7.7180     3.3620    -0.6730 h1         1 R69       0.036367
     67 H992        -6.1530     2.8220    -1.2380 h1         1 R69       0.036367
     68 H993        -7.5620     1.7670    -1.4160 h1         1 R69       0.036367
@<TRIPOS>BOND
     1     1     2 2   
     2     2     3 1   
     3     2     9 1   
     4     3     4 ar  
     5     3     8 ar  
     6     4     5 ar  
     7     4    38 1   
     8     5     6 ar  
     9     5    39 1   
    10     6     7 ar  
    11     7     8 ar  
    12     7    40 1   
    13     8    41 1   
    14     9    10 1   
    15     9    42 1   
    16    10    11 1   
    17    10    16 1   
    18    10    43 1   
    19    11    12 1   
    20    11    44 1   
    21    11    45 1   
    22    12    13 1   
    23    12    46 1   
    24    13    14 1   
    25    13    47 1   
    26    13    48 1   
    27    14    15 1   
    28    14    49 1   
    29    14    50 1   
    30    15    16 1   
    31    15    51 1   
    32    15    52 1   
    33    16    17 1   
    34    16    53 1   
    35    17    18 1   
    36    17    54 1   
    37    18    19 2   
    38    18    20 1   
    39    20    21 ar  
    40    20    23 ar  
    41    21    22 ar  
    42    21    55 1   
    43    22    25 ar  
    44    22    56 1   
    45    23    24 ar  
    46    23    57 1   
    47    24    25 ar  
    48    24    58 1   
    49    25    26 1   
    50    26    27 2   
    51    26    28 1   
    52    28    29 ar  
    53    28    33 ar  
    54    29    30 1   
    55    29    31 ar  
    56    30    59 1   
    57    31    32 ar  
    58    31    60 1   
    59    32    34 ar  
    60    32    61 1   
    61    33    34 ar  
    62    33    62 1   
    63    34    35 1   
    64    35    36 1   
    65    35    37 1   
    66    36    63 1   
    67    36    64 1   
    68    36    65 1   
    69    37    66 1   
    70    37    67 1   
    71    37    68 1   
@<TRIPOS>SUBSTRUCTURE
     1 R69         1 TEMP              0 ****  ****    0 ROOT
