@<TRIPOS>MOLECULE
R69
   68    71     1     0     0
SMALL
No Charge or Current Charge


@<TRIPOS>ATOM
      1 O22          1.9400     1.1570     1.9130 o          1 R69      -0.612100
      2 C21          2.0960     1.2770     0.7060 c          1 R69       0.612700
      3 C14          0.9660     1.7130    -0.2050 ca         1 R69      -0.118600
      4 C13         -0.2710     2.1220     0.3440 ca         1 R69      -0.129000
      5 C12         -1.3320     2.4780    -0.5050 ca         1 R69       0.328900
      6 N11         -1.2410     2.4440    -1.8530 nb         1 R69      -0.652000
      7 C16         -0.0650     2.0480    -2.3900 ca         1 R69       0.328900
      8 C15          1.0520     1.6810    -1.6180 ca         1 R69      -0.129000
      9 N23          3.2970     0.9620     0.1020 ns         1 R69      -0.489900
     10 C31          4.4020     0.2340     0.7650 c3         1 R69       0.090700
     11 C32          5.7660     0.9010     0.4270 c3         1 R69       0.164800
     12 N33          6.9680     0.1000     0.7740 n7         1 R69      -0.883400
     13 C34          6.9780    -0.6010     2.0730 c3         1 R69       0.168800
     14 C35          6.4200    -2.0330     1.9110 c3         1 R69      -0.068400
     15 C36          4.8940    -2.1410     1.6740 c3         1 R69      -0.082400
     16 C37          4.3460    -1.3080     0.4890 c3         1 R69       0.107700
     17 N41          2.9740    -1.7440     0.1770 ns         1 R69      -0.495900
     18 C42          2.4850    -1.8920    -1.1030 c          1 R69       0.610700
     19 O43          3.2370    -2.0240    -2.0590 o          1 R69      -0.617100
     20 C51          0.9820    -1.7930    -1.2690 ca         1 R69      -0.137600
     21 C52          0.4170    -1.9200    -2.5560 ca         1 R69      -0.091500
     22 C53         -0.9590    -1.7280    -2.7640 ca         1 R69      -0.068500
     23 C56          0.1210    -1.4940    -0.1860 ca         1 R69      -0.091500
     24 C55         -1.2530    -1.2900    -0.3970 ca         1 R69      -0.068500
     25 C54         -1.8100    -1.3960    -1.6900 ca         1 R69      -0.133600
     26 C61         -3.2780    -1.1180    -1.9420 c          1 R69       0.607300
     27 O62         -3.7690    -1.2210    -3.0620 o          1 R69      -0.517100
     28 C71         -4.1240    -0.6620    -0.7910 ca         1 R69      -0.159600
     29 C72         -4.5760    -1.5740     0.1780 ca         1 R69       0.120100
     30 O92         -4.2730    -2.8980     0.0740 oh         1 R69      -0.530100
     31 C73         -5.3450    -1.1180     1.2600 ca         1 R69      -0.170000
     32 C74         -5.6590     0.2490     1.3770 ca         1 R69      -0.124000
     33 C76         -4.4540     0.7040    -0.6750 ca         1 R69      -0.107000
     34 C75         -5.2180     1.1800     0.4110 ca         1 R69       0.285000
     35 N95         -5.5270     2.5620     0.5350 nh         1 R69      -0.810400
     36 C98         -5.7710     3.1860     1.8570 c3         1 R69       0.204600
     37 C99         -5.6010     3.4500    -0.6500 c3         1 R69       0.204600
     38 H13         -0.4200     2.1620     1.4200 ha         1 R69       0.140000
     39 H12         -2.2880     2.7970    -0.0910 h4         1 R69       0.023600
     40 H16         -0.0170     2.0200    -3.4780 h4         1 R69       0.023600
     41 H15          1.9510     1.3600    -2.1340 ha         1 R69       0.140000
     42 H23          3.3550     1.1050    -0.8970 hn         1 R69       0.326500
     43 H31          4.2650     0.3610     1.8460 h1         1 R69       0.074700
     44 H321         5.8000     1.8660     0.9510 h1         1 R69       0.035700
     45 H322         5.7900     1.1240    -0.6480 h1         1 R69       0.035700
     46 H33          7.7770     0.7350     0.7420 hn         1 R69       0.423000
     47 H341         6.4240    -0.0490     2.8440 h1         1 R69       0.031700
     48 H342         8.0160    -0.6940     2.4200 h1         1 R69       0.031700
     49 H351         6.6650    -2.6010     2.8170 hc         1 R69       0.047700
     50 H352         6.9480    -2.5300     1.0880 hc         1 R69       0.047700
     51 H361         4.3650    -1.8580     2.5920 hc         1 R69       0.044700
     52 H362         4.6590    -3.1990     1.4990 hc         1 R69       0.044700
     53 H37          4.9760    -1.5170    -0.3860 h1         1 R69       0.098700
     54 H41          2.2870    -1.6740     0.9150 hn         1 R69       0.322500
     55 H52          1.0500    -2.1450    -3.4130 ha         1 R69       0.130500
     56 H53         -1.3560    -1.8150    -3.7730 ha         1 R69       0.130000
     57 H56          0.5000    -1.3790     0.8260 ha         1 R69       0.130500
     58 H55         -1.8720    -1.0310     0.4580 ha         1 R69       0.130000
     59 H92         -4.6850    -3.3740     0.8270 ho         1 R69       0.463000
     60 H73         -5.7010    -1.8140     2.0150 ha         1 R69       0.113000
     61 H74         -6.2600     0.5780     2.2200 ha         1 R69       0.115000
     62 H76         -4.0910     1.3970    -1.4280 ha         1 R69       0.129000
     63 H981        -5.5640     4.2640     1.8250 h1         1 R69       0.036367
     64 H982        -6.8150     3.0410     2.1650 h1         1 R69       0.036367
     65 H983        -5.1120     2.7460     2.6180 h1         1 R69       0.036367
     66 H991        -6.2360     4.3220    -0.4460 h1         1 R69       0.036367
     67 H992        -4.5990     3.8050    -0.9280 h1         1 R69       0.036367
     68 H993        -6.0370     2.9170    -1.5060 h1         1 R69       0.036367
@<TRIPOS>BOND
     1     1     2 2   
     2     2     3 1   
     3     2     9 1   
     4     3     4 ar  
     5     3     8 ar  
     6     4     5 ar  
     7     4    38 1   
     8     5     6 ar  
     9     5    39 1   
    10     6     7 ar  
    11     7     8 ar  
    12     7    40 1   
    13     8    41 1   
    14     9    10 1   
    15     9    42 1   
    16    10    11 1   
    17    10    16 1   
    18    10    43 1   
    19    11    12 1   
    20    11    44 1   
    21    11    45 1   
    22    12    13 1   
    23    12    46 1   
    24    13    14 1   
    25    13    47 1   
    26    13    48 1   
    27    14    15 1   
    28    14    49 1   
    29    14    50 1   
    30    15    16 1   
    31    15    51 1   
    32    15    52 1   
    33    16    17 1   
    34    16    53 1   
    35    17    18 1   
    36    17    54 1   
    37    18    19 2   
    38    18    20 1   
    39    20    21 ar  
    40    20    23 ar  
    41    21    22 ar  
    42    21    55 1   
    43    22    25 ar  
    44    22    56 1   
    45    23    24 ar  
    46    23    57 1   
    47    24    25 ar  
    48    24    58 1   
    49    25    26 1   
    50    26    27 2   
    51    26    28 1   
    52    28    29 ar  
    53    28    33 ar  
    54    29    30 1   
    55    29    31 ar  
    56    30    59 1   
    57    31    32 ar  
    58    31    60 1   
    59    32    34 ar  
    60    32    61 1   
    61    33    34 ar  
    62    33    62 1   
    63    34    35 1   
    64    35    36 1   
    65    35    37 1   
    66    36    63 1   
    67    36    64 1   
    68    36    65 1   
    69    37    66 1   
    70    37    67 1   
    71    37    68 1   
@<TRIPOS>SUBSTRUCTURE
     1 R69         1 TEMP              0 ****  ****    0 ROOT
