@<TRIPOS>MOLECULE
R6B
   52    54     1     0     0
SMALL
No Charge or Current Charge


@<TRIPOS>ATOM
      1 C4          18.1160   -15.5380    -2.0730 ca         1 R6B      -0.137300
      2 C14         15.6310   -15.0900    -2.1780 c3         1 R6B      -0.080100
      3 C5          19.1310   -14.5410    -2.0780 ca         1 R6B       0.320000
      4 C6          20.1880   -14.6380    -1.1510 ca         1 R6B      -0.190000
      5 C11         20.3980   -11.3400    -3.3840 c3         1 R6B      -0.108100
      6 C7          16.8920   -15.4470    -3.0240 c6         1 R6B       0.010300
      7 C8          17.1080   -14.3690    -4.1220 c6         1 R6B      -0.079400
      8 C9          17.7490   -13.0910    -3.5560 c6         1 R6B       0.218800
      9 C10         20.2860   -12.8630    -3.6050 c3         1 R6B       0.230500
     10 C12         20.4240   -13.2370    -5.0990 c3         1 R6B      -0.108100
     11 C13         16.6080   -16.8130    -3.7270 c3         1 R6B      -0.080100
     12 N1          19.0670   -13.4360    -2.9720 nh         1 R6B      -0.812400
     13 C3          18.2040   -16.6020    -1.1440 ca         1 R6B      -0.068000
     14 C1          20.2670   -15.7090    -0.2490 ca         1 R6B      -0.070000
     15 C2          19.2760   -16.7150    -0.2280 cp         1 R6B      -0.049000
     16 C15         19.3510   -17.8520     0.7440 cp         1 R6B      -0.070000
     17 C16         18.1810   -18.4020     1.3250 ca         1 R6B      -0.101500
     18 C17         18.2540   -19.4680     2.2380 ca         1 R6B      -0.127000
     19 C18         19.4970   -20.0200     2.5990 ca         1 R6B       0.010200
     20 C19         20.6690   -19.4840     2.0300 ca         1 R6B      -0.127000
     21 C20         20.5950   -18.4160     1.1180 ca         1 R6B      -0.101500
     22 C21         19.5410   -21.1520     3.5700 ce         1 R6B      -0.244200
     23 C22         20.6240   -21.8330     4.0630 cf         1 R6B      -0.209200
     24 C23         20.5670   -22.9620     5.0410 c          1 R6B       0.696200
     25 O1          19.4800   -23.3340     5.4550 o          1 R6B      -0.722000
     26 O2          21.6260   -23.4640     5.3820 o          1 R6B      -0.722000
     27 H19         15.4130   -15.8640    -1.4330 hc         1 R6B       0.033367
     28 H20         15.7640   -14.1480    -1.6340 hc         1 R6B       0.033367
     29 H18         14.7390   -14.9860    -2.8080 hc         1 R6B       0.033367
     30 H3          20.9500   -13.8670    -1.1010 ha         1 R6B       0.103000
     31 H10         20.3590   -11.1050    -2.3130 hc         1 R6B       0.038200
     32 H11         21.3490   -10.9630    -3.7780 hc         1 R6B       0.038200
     33 H9          19.5830   -10.8040    -3.8850 hc         1 R6B       0.038200
     34 H5          16.1520   -14.1220    -4.6020 hc         1 R6B       0.046200
     35 H4          17.7570   -14.7650    -4.9160 hc         1 R6B       0.046200
     36 H6          17.8460   -12.3490    -4.3610 h1         1 R6B       0.030700
     37 H7          17.1000   -12.6470    -2.7880 h1         1 R6B       0.030700
     38 H8          21.1740   -13.2980    -3.1290 h1         1 R6B       0.059700
     39 H14         21.3910   -12.8970    -5.4890 hc         1 R6B       0.038200
     40 H12         20.3720   -14.3240    -5.2280 hc         1 R6B       0.038200
     41 H13         19.6360   -12.7760    -5.7050 hc         1 R6B       0.038200
     42 H15         16.2920   -17.5920    -3.0240 hc         1 R6B       0.033367
     43 H16         15.8090   -16.7170    -4.4720 hc         1 R6B       0.033367
     44 H17         17.5000   -17.1800    -4.2480 hc         1 R6B       0.033367
     45 H2          17.4290   -17.3620    -1.1260 ha         1 R6B       0.111000
     46 H1          21.0910   -15.7430     0.4580 ha         1 R6B       0.112000
     47 H21         17.2060   -17.9900     1.0790 ha         1 R6B       0.096000
     48 H22         17.3370   -19.8630     2.6670 ha         1 R6B       0.113500
     49 H23         21.6440   -19.8880     2.2840 ha         1 R6B       0.113500
     50 H24         21.5160   -18.0330     0.6860 ha         1 R6B       0.096000
     51 H25         18.5550   -21.4620     3.9230 ha         1 R6B       0.190000
     52 H26         21.6240   -21.5570     3.7400 ha         1 R6B       0.143000
@<TRIPOS>BOND
     1     1     3 ar  
     2     1     6 1   
     3     1    13 ar  
     4     2     6 1   
     5     2    27 1   
     6     2    28 1   
     7     2    29 1   
     8     3     4 ar  
     9     3    12 1   
    10     4    14 ar  
    11     4    30 1   
    12     5     9 1   
    13     5    31 1   
    14     5    32 1   
    15     5    33 1   
    16     6     7 1   
    17     6    11 1   
    18     7     8 1   
    19     7    34 1   
    20     7    35 1   
    21     8    12 1   
    22     8    36 1   
    23     8    37 1   
    24     9    10 1   
    25     9    12 1   
    26     9    38 1   
    27    10    39 1   
    28    10    40 1   
    29    10    41 1   
    30    11    42 1   
    31    11    43 1   
    32    11    44 1   
    33    13    15 ar  
    34    13    45 1   
    35    14    15 ar  
    36    14    46 1   
    37    15    16 1   
    38    16    17 ar  
    39    16    21 ar  
    40    17    18 ar  
    41    17    47 1   
    42    18    19 ar  
    43    18    48 1   
    44    19    20 ar  
    45    19    22 1   
    46    20    21 ar  
    47    20    49 1   
    48    21    50 1   
    49    22    23 2   
    50    22    51 1   
    51    23    24 1   
    52    23    52 1   
    53    24    25 1   
    54    24    26 1   
@<TRIPOS>SUBSTRUCTURE
     1 R6B         1 TEMP              0 ****  ****    0 ROOT
