@<TRIPOS>MOLECULE
R6B
   52    54     1     0     0
SMALL
abcg2


@<TRIPOS>ATOM
      1 C4          18.1520   -15.7230    -2.2800 ca         1 R6B      -0.137300
      2 C14         15.7980   -14.9080    -2.1760 c3         1 R6B      -0.080100
      3 C5          19.2630   -14.8760    -2.5230 ca         1 R6B       0.320000
      4 C6          20.4130   -15.0870    -1.7390 ca         1 R6B      -0.190000
      5 C11         20.1500   -11.8420    -2.4510 c3         1 R6B      -0.108100
      6 C7          16.8510   -15.5890    -3.0590 c6         1 R6B       0.010300
      7 C8          17.1050   -14.7540    -4.3120 c6         1 R6B      -0.079400
      8 C9          17.9300   -13.5210    -4.0200 c6         1 R6B       0.218800
      9 C10         20.2850   -12.8900    -3.5550 c3         1 R6B       0.230500
     10 C12         20.3830   -12.2250    -4.9240 c3         1 R6B      -0.108100
     11 C13         16.3130   -16.9510    -3.5080 c3         1 R6B      -0.080100
     12 N1          19.2280   -13.8980    -3.4980 nh         1 R6B      -0.812400
     13 C3          18.2440   -16.6860    -1.2870 ca         1 R6B      -0.068000
     14 C1          20.4710   -16.0690    -0.7700 ca         1 R6B      -0.070000
     15 C2          19.3810   -16.8930    -0.5060 cp         1 R6B      -0.049000
     16 C15         19.4200   -17.9170     0.5500 cp         1 R6B      -0.070000
     17 C16         18.2810   -18.2500     1.2870 ca         1 R6B      -0.101500
     18 C17         18.3300   -19.2060     2.2880 ca         1 R6B      -0.127000
     19 C18         19.5160   -19.8710     2.6080 ca         1 R6B       0.010200
     20 C19         20.6550   -19.5410     1.8660 ca         1 R6B      -0.127000
     21 C20         20.6070   -18.5910     0.8630 ca         1 R6B      -0.101500
     22 C21         19.5100   -20.8600     3.6850 ce         1 R6B      -0.244200
     23 C22         20.5520   -21.5500     4.1580 cf         1 R6B      -0.209200
     24 C23         20.4430   -22.5610     5.2800 c          1 R6B       0.696200
     25 O1          19.3220   -22.7350     5.8000 o          1 R6B      -0.722000
     26 O2          21.5090   -23.1370     5.5810 o          1 R6B      -0.722000
     27 H19         15.5990   -15.4970    -1.2790 hc         1 R6B       0.033367
     28 H20         16.1160   -13.9160    -1.8530 hc         1 R6B       0.033367
     29 H18         14.8570   -14.8000    -2.7210 hc         1 R6B       0.033367
     30 H3          21.2880   -14.4680    -1.8630 ha         1 R6B       0.103000
     31 H10         20.1250   -12.2990    -1.4610 hc         1 R6B       0.038200
     32 H11         20.9920   -11.1500    -2.4780 hc         1 R6B       0.038200
     33 H9          19.2360   -11.2580    -2.5770 hc         1 R6B       0.038200
     34 H5          16.1530   -14.4600    -4.7600 hc         1 R6B       0.046200
     35 H4          17.6330   -15.3570    -5.0580 hc         1 R6B       0.046200
     36 H6          18.0670   -12.9700    -4.9480 h1         1 R6B       0.030700
     37 H7          17.3970   -12.8490    -3.3340 h1         1 R6B       0.030700
     38 H8          21.2320   -13.4140    -3.4250 h1         1 R6B       0.059700
     39 H14         21.3200   -11.6710    -4.9760 hc         1 R6B       0.038200
     40 H12         20.3870   -12.9620    -5.7280 hc         1 R6B       0.038200
     41 H13         19.5790   -11.5120    -5.1100 hc         1 R6B       0.038200
     42 H15         16.0100   -17.5810    -2.6710 hc         1 R6B       0.033367
     43 H16         15.4320   -16.8100    -4.1380 hc         1 R6B       0.033367
     44 H17         17.0560   -17.4970    -4.0900 hc         1 R6B       0.033367
     45 H2          17.3840   -17.3230    -1.1160 ha         1 R6B       0.111000
     46 H1          21.3810   -16.1580    -0.1880 ha         1 R6B       0.112000
     47 H21         17.3450   -17.7410     1.0960 ha         1 R6B       0.096000
     48 H22         17.4290   -19.4330     2.8450 ha         1 R6B       0.113500
     49 H23         21.5960   -20.0390     2.0630 ha         1 R6B       0.113500
     50 H24         21.5080   -18.3830     0.3000 ha         1 R6B       0.096000
     51 H25         18.5410   -21.0360     4.1440 ha         1 R6B       0.190000
     52 H26         21.5430   -21.4070     3.7360 ha         1 R6B       0.143000
@<TRIPOS>BOND
     1     1     3 ar  
     2     1     6 1   
     3     1    13 ar  
     4     2     6 1   
     5     2    27 1   
     6     2    28 1   
     7     2    29 1   
     8     3     4 ar  
     9     3    12 1   
    10     4    14 ar  
    11     4    30 1   
    12     5     9 1   
    13     5    31 1   
    14     5    32 1   
    15     5    33 1   
    16     6     7 1   
    17     6    11 1   
    18     7     8 1   
    19     7    34 1   
    20     7    35 1   
    21     8    12 1   
    22     8    36 1   
    23     8    37 1   
    24     9    10 1   
    25     9    12 1   
    26     9    38 1   
    27    10    39 1   
    28    10    40 1   
    29    10    41 1   
    30    11    42 1   
    31    11    43 1   
    32    11    44 1   
    33    13    15 ar  
    34    13    45 1   
    35    14    15 ar  
    36    14    46 1   
    37    15    16 1   
    38    16    17 ar  
    39    16    21 ar  
    40    17    18 ar  
    41    17    47 1   
    42    18    19 ar  
    43    18    48 1   
    44    19    20 ar  
    45    19    22 1   
    46    20    21 ar  
    47    20    49 1   
    48    21    50 1   
    49    22    23 2   
    50    22    51 1   
    51    23    24 1   
    52    23    52 1   
    53    24    25 1   
    54    24    26 1   
@<TRIPOS>SUBSTRUCTURE
     1 R6B         1 TEMP              0 ****  ****    0 ROOT
