@<TRIPOS>MOLECULE
R6C
   51    53     1     0     0
SMALL
abcg2


@<TRIPOS>ATOM
      1 OAP          0.7960     4.1900     2.1170 oh         1 R6C      -0.664000
      2 CAQ         -0.2340     3.6860     1.2980 c3         1 R6C       0.133600
      3 CAR          0.2860     3.5240    -0.1240 c3         1 R6C       0.253500
      4 CAK          0.7380     4.8480    -0.7390 c3         1 R6C      -0.084400
      5 CAI          1.0520     4.7420    -2.2250 c3         1 R6C      -0.090100
      6 NAS          1.3710     2.5680    -0.2040 nu         1 R6C      -0.911100
      7 CAT          1.2280     1.2280    -0.1580 ca         1 R6C       0.438900
      8 NAU          2.3450     0.5030    -0.0950 nb         1 R6C      -0.287000
      9 CAV          2.1090    -0.8010    -0.0820 ca         1 R6C       0.159500
     10 NAW          3.0150    -1.8130    -0.0270 na         1 R6C      -0.286300
     11 CAZ          4.4670    -1.6810     0.0540 c3         1 R6C       0.092300
     12 CAY          4.9720    -2.1630     1.4070 c3         1 R6C      -0.106600
     13 CBA          5.1410    -2.3960    -1.1080 c3         1 R6C      -0.106600
     14 CAX          2.2890    -2.9750    -0.0250 cc         1 R6C       0.385700
     15 CAN          0.8640    -1.4260    -0.1150 ca         1 R6C      -0.103600
     16 NAO          1.0040    -2.7910    -0.0770 nd         1 R6C      -0.512100
     17 NAL         -0.0300     0.7480    -0.1930 nb         1 R6C      -0.369000
     18 CAM         -0.2250    -0.5500    -0.1670 ca         1 R6C       0.453300
     19 OAJ         -1.4520    -1.0450    -0.1780 os         1 R6C      -0.427300
     20 CAD         -2.5500    -0.1200    -0.1820 c3         1 R6C       0.216900
     21 CAE         -3.8030    -0.9320    -0.0710 ca         1 R6C      -0.100300
     22 CAG         -4.2930    -1.3040     1.1780 ca         1 R6C      -0.082000
     23 CAH         -5.4450    -2.0710     1.2840 ca         1 R6C      -0.116000
     24 CAF         -6.1180    -2.4760     0.1390 ca         1 R6C      -0.097000
     25 CAC         -5.6350    -2.1100    -1.1110 ca         1 R6C      -0.116000
     26 CAB         -4.4820    -1.3430    -1.2130 ca         1 R6C      -0.082000
     27 HAP          0.4790     4.2020     3.0240 ho         1 R6C       0.444000
     28 HAQ1        -1.1040     4.3570     1.2730 h1         1 R6C       0.030700
     29 HAQ2        -0.5930     2.7120     1.6550 h1         1 R6C       0.030700
     30 HAR         -0.5470     3.1390    -0.7160 h1         1 R6C       0.077700
     31 HAK1         1.6070     5.2310    -0.1970 hc         1 R6C       0.051700
     32 HAK2        -0.0610     5.5780    -0.5880 hc         1 R6C       0.051700
     33 HAI1         1.8640     4.0410    -2.4180 hc         1 R6C       0.035700
     34 HAI2         0.1800     4.4010    -2.7870 hc         1 R6C       0.035700
     35 HAI3         1.3480     5.7100    -2.6310 hc         1 R6C       0.035700
     36 HAS          2.3060     2.9080    -0.0440 hn         1 R6C       0.507000
     37 HAZ          4.6610    -0.6110    -0.0360 h1         1 R6C       0.088700
     38 HAY1         4.8000    -3.2330     1.5370 hc         1 R6C       0.046367
     39 HAY2         6.0440    -1.9870     1.4880 hc         1 R6C       0.046367
     40 HAY3         4.4790    -1.6350     2.2220 hc         1 R6C       0.046367
     41 HBA1         4.9890    -3.4760    -1.0620 hc         1 R6C       0.046367
     42 HBA2         4.7640    -2.0370    -2.0650 hc         1 R6C       0.046367
     43 HBA3         6.2150    -2.2160    -1.0770 hc         1 R6C       0.046367
     44 HAX          2.7720    -3.9410     0.0180 h5         1 R6C       0.063800
     45 HAD1        -2.4510     0.5740     0.6550 h1         1 R6C       0.053700
     46 HAD2        -2.5370     0.4660    -1.1030 h1         1 R6C       0.053700
     47 HAG         -3.7750    -0.9870     2.0760 ha         1 R6C       0.114500
     48 HAH         -5.8200    -2.3470     2.2610 ha         1 R6C       0.113500
     49 HAF         -7.0180    -3.0710     0.2200 ha         1 R6C       0.112000
     50 HAC         -6.1590    -2.4180    -2.0070 ha         1 R6C       0.113500
     51 HAB         -4.1110    -1.0590    -2.1900 ha         1 R6C       0.114500
@<TRIPOS>BOND
     1     1     2 1   
     2     1    27 1   
     3     2     3 1   
     4     2    28 1   
     5     2    29 1   
     6     3     4 1   
     7     3     6 1   
     8     3    30 1   
     9     4     5 1   
    10     4    31 1   
    11     4    32 1   
    12     5    33 1   
    13     5    34 1   
    14     5    35 1   
    15     6     7 1   
    16     6    36 1   
    17     7     8 ar  
    18     7    17 ar  
    19     8     9 ar  
    20     9    10 1   
    21     9    15 ar  
    22    10    11 1   
    23    10    14 1   
    24    11    12 1   
    25    11    13 1   
    26    11    37 1   
    27    12    38 1   
    28    12    39 1   
    29    12    40 1   
    30    13    41 1   
    31    13    42 1   
    32    13    43 1   
    33    14    16 2   
    34    14    44 1   
    35    15    16 1   
    36    15    18 ar  
    37    17    18 ar  
    38    18    19 1   
    39    19    20 1   
    40    20    21 1   
    41    20    45 1   
    42    20    46 1   
    43    21    22 ar  
    44    21    26 ar  
    45    22    23 ar  
    46    22    47 1   
    47    23    24 ar  
    48    23    48 1   
    49    24    25 ar  
    50    24    49 1   
    51    25    26 ar  
    52    25    50 1   
    53    26    51 1   
@<TRIPOS>SUBSTRUCTURE
     1 R6C         1 TEMP              0 ****  ****    0 ROOT
