@<TRIPOS>MOLECULE
R6C
   51    53     1     0     0
SMALL
No Charge or Current Charge


@<TRIPOS>ATOM
      1 OAP          1.3340     4.3790     2.1610 oh         1 R6C      -0.664000
      2 CAQ          0.1400     3.9610     1.4660 c3         1 R6C       0.133600
      3 CAR          0.3970     3.7030    -0.0560 c3         1 R6C       0.253500
      4 CAK          0.8470     4.9840    -0.8070 c3         1 R6C      -0.084400
      5 CAI          0.8920     4.8340    -2.3440 c3         1 R6C      -0.090100
      6 NAS          1.4010     2.6320    -0.2470 nu         1 R6C      -0.911100
      7 CAT          1.1940     1.2700    -0.1630 ca         1 R6C       0.438900
      8 NAU          2.3120     0.5260    -0.0970 nb         1 R6C      -0.287000
      9 CAV          2.1170    -0.8020    -0.0160 ca         1 R6C       0.159500
     10 NAW          2.9770    -1.8600     0.0660 na         1 R6C      -0.286300
     11 CAZ          4.4450    -1.7100     0.0820 c3         1 R6C       0.092300
     12 CAY          5.0490    -2.2230     1.4060 c3         1 R6C      -0.106600
     13 CBA          5.0930    -2.3840    -1.1450 c3         1 R6C      -0.106600
     14 CAX          2.2260    -3.0350     0.1280 cc         1 R6C       0.385700
     15 CAN          0.8630    -1.3640    -0.0020 ca         1 R6C      -0.103600
     16 NAO          0.9090    -2.7620     0.0880 nd         1 R6C      -0.512100
     17 NAL         -0.0780     0.8320    -0.1590 nb         1 R6C      -0.369000
     18 CAM         -0.2580    -0.5050    -0.0770 ca         1 R6C       0.453300
     19 OAJ         -1.5270    -1.0480    -0.0640 os         1 R6C      -0.427300
     20 CAD         -2.6900    -0.2050    -0.1380 c3         1 R6C       0.216900
     21 CAE         -3.9300    -1.0880    -0.1020 ca         1 R6C      -0.100300
     22 CAG         -4.5300    -1.4210     1.1290 ca         1 R6C      -0.082000
     23 CAH         -5.6760    -2.2350     1.1610 ca         1 R6C      -0.116000
     24 CAF         -6.2290    -2.7210    -0.0360 ca         1 R6C      -0.097000
     25 CAC         -5.6340    -2.3930    -1.2660 ca         1 R6C      -0.116000
     26 CAB         -4.4880    -1.5800    -1.2990 ca         1 R6C      -0.082000
     27 HAP          1.1010     4.4580     3.1130 ho         1 R6C       0.444000
     28 HAQ1        -0.6420     4.7260     1.5650 h1         1 R6C       0.030700
     29 HAQ2        -0.2530     3.0390     1.9150 h1         1 R6C       0.030700
     30 HAR         -0.5610     3.3970    -0.5020 h1         1 R6C       0.077700
     31 HAK1         1.8330     5.3010    -0.4460 hc         1 R6C       0.051700
     32 HAK2         0.1500     5.7950    -0.5630 hc         1 R6C       0.051700
     33 HAI1         1.6280     4.0800    -2.6460 hc         1 R6C       0.035700
     34 HAI2        -0.0890     4.5360    -2.7340 hc         1 R6C       0.035700
     35 HAI3         1.1700     5.7860    -2.8120 hc         1 R6C       0.035700
     36 HAS          2.3690     2.9060    -0.0950 hn         1 R6C       0.507000
     37 HAZ          4.6780    -0.6380     0.0190 h1         1 R6C       0.088700
     38 HAY1         4.8750    -3.2990     1.5270 hc         1 R6C       0.046367
     39 HAY2         6.1310    -2.0450     1.4310 hc         1 R6C       0.046367
     40 HAY3         4.6000    -1.7030     2.2600 hc         1 R6C       0.046367
     41 HBA1         4.9210    -3.4670    -1.1360 hc         1 R6C       0.046367
     42 HBA2         4.6740    -1.9760    -2.0730 hc         1 R6C       0.046367
     43 HBA3         6.1750    -2.2090    -1.1550 hc         1 R6C       0.046367
     44 HAX          2.6800    -4.0160     0.1990 h5         1 R6C       0.063800
     45 HAD1        -2.7160     0.4980     0.7060 h1         1 R6C       0.053700
     46 HAD2        -2.6850     0.3830    -1.0660 h1         1 R6C       0.053700
     47 HAG         -4.1070    -1.0510     2.0600 ha         1 R6C       0.114500
     48 HAH         -6.1350    -2.4890     2.1140 ha         1 R6C       0.113500
     49 HAF         -7.1160    -3.3510    -0.0100 ha         1 R6C       0.112000
     50 HAC         -6.0600    -2.7700    -2.1930 ha         1 R6C       0.113500
     51 HAB         -4.0320    -1.3330    -2.2560 ha         1 R6C       0.114500
@<TRIPOS>BOND
     1     1     2 1   
     2     1    27 1   
     3     2     3 1   
     4     2    28 1   
     5     2    29 1   
     6     3     4 1   
     7     3     6 1   
     8     3    30 1   
     9     4     5 1   
    10     4    31 1   
    11     4    32 1   
    12     5    33 1   
    13     5    34 1   
    14     5    35 1   
    15     6     7 1   
    16     6    36 1   
    17     7     8 ar  
    18     7    17 ar  
    19     8     9 ar  
    20     9    10 1   
    21     9    15 ar  
    22    10    11 1   
    23    10    14 1   
    24    11    12 1   
    25    11    13 1   
    26    11    37 1   
    27    12    38 1   
    28    12    39 1   
    29    12    40 1   
    30    13    41 1   
    31    13    42 1   
    32    13    43 1   
    33    14    16 2   
    34    14    44 1   
    35    15    16 1   
    36    15    18 ar  
    37    17    18 ar  
    38    18    19 1   
    39    19    20 1   
    40    20    21 1   
    41    20    45 1   
    42    20    46 1   
    43    21    22 ar  
    44    21    26 ar  
    45    22    23 ar  
    46    22    47 1   
    47    23    24 ar  
    48    23    48 1   
    49    24    25 ar  
    50    24    49 1   
    51    25    26 ar  
    52    25    50 1   
    53    26    51 1   
@<TRIPOS>SUBSTRUCTURE
     1 R6C         1 TEMP              0 ****  ****    0 ROOT
