@<TRIPOS>MOLECULE
R6D
   58    63     1     0     0
SMALL
abcg2


@<TRIPOS>ATOM
      1 C02          4.1670     0.9210     0.0040 cc         1 R6D       0.299000
      2 C03          5.4050     0.3750    -0.1050 cd         1 R6D      -0.166000
      3 C05          4.3550    -1.7650    -0.2470 cd         1 R6D      -0.177000
      4 C06          3.0870    -1.1060    -0.1250 cd         1 R6D       0.684900
      5 C07          6.5410    -1.8340    -0.3570 cd         1 R6D      -0.258100
      6 C08          5.9940    -3.0890    -0.4440 cc         1 R6D      -0.046400
      7 C11          0.6470    -1.6220    -0.0580 ca         1 R6D       0.275000
      8 C12          4.0190     2.3830     0.1340 ca         1 R6D       0.308000
      9 C14          5.0310     4.4210     0.2840 ca         1 R6D       0.564900
     10 C15          3.7540     5.0260     0.3620 ca         1 R6D       0.232900
     11 C17          2.7710     2.9840     0.2050 ca         1 R6D       0.267900
     12 C18         -0.2440    -2.6730    -0.3020 ca         1 R6D      -0.119500
     13 C19         -1.6070    -2.4920    -0.2170 ca         1 R6D      -0.129000
     14 C20         -2.1600    -1.2420     0.0990 ca         1 R6D       0.263000
     15 C21         -1.2640    -0.2000     0.3380 ca         1 R6D      -0.129000
     16 C22          0.1130    -0.3820     0.2750 ca         1 R6D      -0.119500
     17 C24         -4.0640     0.1500     0.7170 c6         1 R6D       0.194800
     18 C25         -5.5310    -0.0020     1.0780 c6         1 R6D       0.157300
     19 C27         -5.7920    -1.6980    -0.5570 c6         1 R6D       0.157300
     20 C28         -4.3320    -1.5650    -0.9390 c6         1 R6D       0.194800
     21 C29         -7.7080    -0.5280     0.2480 cy         1 R6D       0.104500
     22 C30         -8.4370     0.8010     0.4720 cy         1 R6D       0.144100
     23 C32         -8.6500    -0.6660    -0.9530 cy         1 R6D       0.144100
     24 N01          3.0150     0.1890    -0.0030 nc         1 R6D      -0.765000
     25 N04          5.4780    -0.9890    -0.2310 na         1 R6D       0.160100
     26 N09          4.6400    -3.0410    -0.3760 nc         1 R6D      -0.284600
     27 N10          2.0070    -1.9170    -0.1480 nu         1 R6D      -0.917900
     28 N13          5.1370     3.1070     0.1760 nb         1 R6D      -0.743000
     29 N16          2.6590     4.3080     0.3220 nb         1 R6D      -0.609000
     30 N23         -3.5470    -1.0990     0.1960 nh         1 R6D      -0.784400
     31 N26         -6.3070    -0.4320    -0.0700 n3         1 R6D      -0.702600
     32 N33          6.1590     5.1670     0.2800 nv         1 R6D      -1.063900
     33 O31         -9.3270     0.5530    -0.6230 oq         1 R6D      -0.447000
     34 H1           6.3250     0.9360    -0.1020 h4         1 R6D       0.174000
     35 H2           7.5590    -1.4840    -0.3740 h4         1 R6D       0.236000
     36 H3           6.5240    -4.0230    -0.5540 h4         1 R6D       0.230000
     37 H4           3.6570     6.1030     0.4550 h4         1 R6D       0.027100
     38 H5           1.8580     2.4060     0.1660 h4         1 R6D       0.051100
     39 H6           0.1400    -3.6560    -0.5510 ha         1 R6D       0.128000
     40 H7          -2.2480    -3.3480    -0.3850 ha         1 R6D       0.115500
     41 H8          -1.6230     0.7920     0.5770 ha         1 R6D       0.115500
     42 H9           0.7620     0.4560     0.4730 ha         1 R6D       0.128000
     43 H11         -3.5190     0.4200     1.6230 h1         1 R6D       0.046200
     44 H12         -5.6200    -0.7120     1.9180 h1         1 R6D       0.041200
     45 H13         -5.9010     0.9640     1.4290 h1         1 R6D       0.041200
     46 H14         -6.3540    -2.0060    -1.4420 h1         1 R6D       0.041200
     47 H15         -5.9010    -2.4980     0.1960 h1         1 R6D       0.041200
     48 H16         -3.9740    -2.5370    -1.2720 h1         1 R6D       0.046200
     49 H17         -4.2420    -0.8710    -1.7880 h1         1 R6D       0.046200
     50 H18         -7.9020    -1.2700     1.0380 h1         1 R6D       0.044700
     51 H19         -8.9640     0.9010     1.4240 h1         1 R6D       0.055950
     52 H20         -7.8160     1.6880     0.3130 h1         1 R6D       0.055950
     53 H21         -8.1500    -0.6160    -1.9250 h1         1 R6D       0.055950
     54 H22         -9.3190    -1.5300    -0.9410 h1         1 R6D       0.055950
     55 H23          2.2250    -2.8940    -0.2880 hn         1 R6D       0.524000
     56 H25          6.1140     6.1190     0.6040 hn         1 R6D       0.482000
     57 H26          7.0330     4.6960     0.4430 hn         1 R6D       0.482000
     58 H10         -3.9460     0.9760    -0.0000 h1         1 R6D       0.046200
@<TRIPOS>BOND
     1     1     2 2   
     2     1     8 1   
     3     1    24 1   
     4     2    25 1   
     5     2    34 1   
     6     3     4 1   
     7     3    25 1   
     8     3    26 2   
     9     4    24 2   
    10     4    27 1   
    11     5     6 2   
    12     5    25 1   
    13     5    35 1   
    14     6    26 1   
    15     6    36 1   
    16     7    12 ar  
    17     7    16 ar  
    18     7    27 1   
    19     8    11 ar  
    20     8    28 ar  
    21     9    10 ar  
    22     9    28 ar  
    23     9    32 1   
    24    10    29 ar  
    25    10    37 1   
    26    11    29 ar  
    27    11    38 1   
    28    12    13 ar  
    29    12    39 1   
    30    13    14 ar  
    31    13    40 1   
    32    14    15 ar  
    33    14    30 1   
    34    15    16 ar  
    35    15    41 1   
    36    16    42 1   
    37    17    18 1   
    38    17    30 1   
    39    17    43 1   
    40    17    58 1   
    41    18    31 1   
    42    18    44 1   
    43    18    45 1   
    44    19    20 1   
    45    19    31 1   
    46    19    46 1   
    47    19    47 1   
    48    20    30 1   
    49    20    48 1   
    50    20    49 1   
    51    21    22 1   
    52    21    23 1   
    53    21    31 1   
    54    21    50 1   
    55    22    33 1   
    56    22    51 1   
    57    22    52 1   
    58    23    33 1   
    59    23    53 1   
    60    23    54 1   
    61    27    55 1   
    62    32    56 1   
    63    32    57 1   
@<TRIPOS>SUBSTRUCTURE
     1 R6D         1 TEMP              0 ****  ****    0 ROOT
