@<TRIPOS>MOLECULE
R6D
   58    63     1     0     0
SMALL
No Charge or Current Charge


@<TRIPOS>ATOM
      1 C02          4.2770     0.9280    -0.0270 cc         1 R6D       0.299000
      2 C03          5.5510     0.3450     0.0680 cd         1 R6D      -0.166000
      3 C05          4.4240    -1.7680     0.0840 cd         1 R6D      -0.177000
      4 C06          3.1700    -1.1050     0.0030 cd         1 R6D       0.684900
      5 C07          6.6640    -1.8300     0.1870 cd         1 R6D      -0.258100
      6 C08          6.1090    -3.0970     0.1810 cc         1 R6D      -0.046400
      7 C11          0.6630    -1.5790    -0.0330 ca         1 R6D       0.275000
      8 C12          4.2420     2.4200    -0.0990 ca         1 R6D       0.308000
      9 C14          5.2880     4.4670    -0.1340 ca         1 R6D       0.564900
     10 C15          4.0270     5.1330    -0.2380 ca         1 R6D       0.232900
     11 C17          2.9780     3.0880    -0.2060 ca         1 R6D       0.267900
     12 C18         -0.2170    -2.5460    -0.5480 ca         1 R6D      -0.119500
     13 C19         -1.6090    -2.3390    -0.5230 ca         1 R6D      -0.129000
     14 C20         -2.1530    -1.1640     0.0280 ca         1 R6D       0.263000
     15 C21         -1.2720    -0.2020     0.5630 ca         1 R6D      -0.129000
     16 C22          0.1210    -0.4080     0.5350 ca         1 R6D      -0.119500
     17 C24         -4.2120    -0.0920     1.0650 c6         1 R6D       0.194800
     18 C25         -5.7260    -0.4240     1.2650 c6         1 R6D       0.157300
     19 C27         -5.8550    -1.3850    -0.9770 c6         1 R6D       0.157300
     20 C28         -4.3430    -1.0740    -1.2260 c6         1 R6D       0.194800
     21 C29         -7.9410    -0.7190     0.1880 cy         1 R6D       0.104500
     22 C30         -8.8210     0.3600     0.9020 cy         1 R6D       0.144100
     23 C32         -8.9300    -0.4540    -0.9960 cy         1 R6D       0.144100
     24 N01          3.0730     0.2070    -0.0620 nc         1 R6D      -0.765000
     25 N04          5.5520    -1.0370     0.1380 na         1 R6D       0.160100
     26 N09          4.7290    -3.0590     0.1180 nc         1 R6D      -0.284600
     27 N10          2.0370    -1.8440    -0.0730 nu         1 R6D      -0.917900
     28 N13          5.4170     3.1390    -0.0610 nb         1 R6D      -0.743000
     29 N16          2.8520     4.4460    -0.2760 nb         1 R6D      -0.609000
     30 N23         -3.5560    -0.9760     0.0470 nh         1 R6D      -0.784400
     31 N26         -6.4920    -0.4300    -0.0190 n3         1 R6D      -0.702600
     32 N33          6.5050     5.0510    -0.0820 nv         1 R6D      -1.063900
     33 O31         -9.9260    -0.0480     0.0130 oq         1 R6D      -0.447000
     34 H1           6.5010     0.8610     0.0920 h4         1 R6D       0.174000
     35 H2           7.6870    -1.4690     0.2210 h4         1 R6D       0.236000
     36 H3           6.6250    -4.0540     0.2150 h4         1 R6D       0.230000
     37 H4           3.9640     6.2190    -0.2920 h4         1 R6D       0.027100
     38 H5           2.0430     2.5310    -0.2370 h4         1 R6D       0.051100
     39 H6           0.1750    -3.4640    -0.9780 ha         1 R6D       0.128000
     40 H7          -2.2680    -3.1050    -0.9220 ha         1 R6D       0.115500
     41 H8          -1.6570     0.7150     0.9980 ha         1 R6D       0.115500
     42 H9           0.7660     0.3440     0.9750 ha         1 R6D       0.128000
     43 H11         -3.7080    -0.1930     2.0370 h1         1 R6D       0.046200
     44 H12         -5.8040    -1.4070     1.7530 h1         1 R6D       0.041200
     45 H13         -6.1530     0.3120     1.9620 h1         1 R6D       0.041200
     46 H14         -6.3760    -1.3620    -1.9450 h1         1 R6D       0.041200
     47 H15         -5.9380    -2.4130    -0.5940 h1         1 R6D       0.041200
     48 H16         -3.9350    -1.8570    -1.8800 h1         1 R6D       0.046200
     49 H17         -4.2680    -0.1250    -1.7760 h1         1 R6D       0.046200
     50 H18         -8.0960    -1.7140     0.6230 h1         1 R6D       0.044700
     51 H19         -9.0350     0.1760     1.9600 h1         1 R6D       0.055950
     52 H20         -8.5150     1.3980     0.7210 h1         1 R6D       0.055950
     53 H21         -8.6500     0.3800    -1.6510 h1         1 R6D       0.055950
     54 H22         -9.2370    -1.3370    -1.5670 h1         1 R6D       0.055950
     55 H23          2.2830    -2.8190    -0.2220 hn         1 R6D       0.524000
     56 H25          6.5560     6.0250     0.2030 hn         1 R6D       0.482000
     57 H26          7.2650     4.4490     0.2140 hn         1 R6D       0.482000
     58 H10         -4.1220     0.9600     0.7560 h1         1 R6D       0.046200
@<TRIPOS>BOND
     1     1     2 2   
     2     1     8 1   
     3     1    24 1   
     4     2    25 1   
     5     2    34 1   
     6     3     4 1   
     7     3    25 1   
     8     3    26 2   
     9     4    24 2   
    10     4    27 1   
    11     5     6 2   
    12     5    25 1   
    13     5    35 1   
    14     6    26 1   
    15     6    36 1   
    16     7    12 ar  
    17     7    16 ar  
    18     7    27 1   
    19     8    11 ar  
    20     8    28 ar  
    21     9    10 ar  
    22     9    28 ar  
    23     9    32 1   
    24    10    29 ar  
    25    10    37 1   
    26    11    29 ar  
    27    11    38 1   
    28    12    13 ar  
    29    12    39 1   
    30    13    14 ar  
    31    13    40 1   
    32    14    15 ar  
    33    14    30 1   
    34    15    16 ar  
    35    15    41 1   
    36    16    42 1   
    37    17    18 1   
    38    17    30 1   
    39    17    43 1   
    40    17    58 1   
    41    18    31 1   
    42    18    44 1   
    43    18    45 1   
    44    19    20 1   
    45    19    31 1   
    46    19    46 1   
    47    19    47 1   
    48    20    30 1   
    49    20    48 1   
    50    20    49 1   
    51    21    22 1   
    52    21    23 1   
    53    21    31 1   
    54    21    50 1   
    55    22    33 1   
    56    22    51 1   
    57    22    52 1   
    58    23    33 1   
    59    23    53 1   
    60    23    54 1   
    61    27    55 1   
    62    32    56 1   
    63    32    57 1   
@<TRIPOS>SUBSTRUCTURE
     1 R6D         1 TEMP              0 ****  ****    0 ROOT
