@<TRIPOS>MOLECULE
R6E
   33    32     1     0     0
SMALL
bcc


@<TRIPOS>ATOM
      1 N            1.6360    -1.3310     1.2720 n8         1 R6E      -0.892800
      2 CA           1.6380    -0.2060     0.3300 c3         1 R6E       0.034200
      3 C            2.8880    -0.2520    -0.6010 c          1 R6E       0.903600
      4 O            2.7420     0.0000    -1.8130 o          1 R6E      -0.837300
      5 CB           0.3380    -0.2490    -0.4780 c3         1 R6E      -0.046400
      6 CB2          1.7480     1.0740     1.1760 c3         1 R6E      -0.045400
      7 CG          -0.9490    -0.1580     0.3320 c3         1 R6E      -0.073400
      8 CG2          1.7150     2.3800     0.3920 c3         1 R6E      -0.079100
      9 CD          -2.1920    -0.2170    -0.5490 c3         1 R6E      -0.077400
     10 CE          -3.4930    -0.0930     0.2330 c3         1 R6E      -0.075400
     11 CZ          -4.7350    -0.1200    -0.6500 c3         1 R6E      -0.076400
     12 CH          -6.0270     0.0210     0.1430 c3         1 R6E      -0.086100
     13 H1           1.4920    -2.1900     0.7500 hn         1 R6E       0.328300
     14 H2           2.5770    -1.4130     1.6420 hn         1 R6E       0.328300
     15 H7           0.3490     0.5500    -1.2210 hc         1 R6E       0.039700
     16 H8           0.3220    -1.1810    -1.0580 hc         1 R6E       0.039700
     17 H9           0.9460     1.0750     1.9180 hc         1 R6E       0.026700
     18 H10          2.6820     1.0200     1.7440 hc         1 R6E       0.026700
     19 H11         -0.9860    -0.9630     1.0720 hc         1 R6E       0.034700
     20 H12         -0.9710     0.7770     0.9020 hc         1 R6E       0.034700
     21 H13          2.5220     2.4420    -0.3390 hc         1 R6E       0.021033
     22 H14          0.7760     2.5010    -0.1510 hc         1 R6E       0.021033
     23 H15          1.8130     3.2350     1.0620 hc         1 R6E       0.021033
     24 H16         -2.1430     0.5830    -1.2960 hc         1 R6E       0.031200
     25 H17         -2.1950    -1.1560    -1.1140 hc         1 R6E       0.031200
     26 H18         -3.5550    -0.9020     0.9700 hc         1 R6E       0.032700
     27 H19         -3.4810     0.8390     0.8100 hc         1 R6E       0.032700
     28 H20         -4.6680     0.6850    -1.3880 hc         1 R6E       0.033700
     29 H21         -4.7520    -1.0530    -1.2220 hc         1 R6E       0.033700
     30 H22         -6.1330    -0.7870     0.8700 hc         1 R6E       0.024367
     31 H23         -6.0470     0.9630     0.6950 hc         1 R6E       0.024367
     32 H24         -6.9040    -0.0000    -0.5050 hc         1 R6E       0.024367
     33 OXT          3.9710    -0.5230    -0.0380 o          1 R6E      -0.837300
@<TRIPOS>BOND
     1     1     2 1   
     2     1    13 1   
     3     1    14 1   
     4     2     3 1   
     5     2     5 1   
     6     2     6 1   
     7     3     4 1   
     8     3    33 1   
     9     5     7 1   
    10     5    15 1   
    11     5    16 1   
    12     6     8 1   
    13     6    17 1   
    14     6    18 1   
    15     7     9 1   
    16     7    19 1   
    17     7    20 1   
    18     8    21 1   
    19     8    22 1   
    20     8    23 1   
    21     9    10 1   
    22     9    24 1   
    23     9    25 1   
    24    10    11 1   
    25    10    26 1   
    26    10    27 1   
    27    11    12 1   
    28    11    28 1   
    29    11    29 1   
    30    12    30 1   
    31    12    31 1   
    32    12    32 1   
@<TRIPOS>SUBSTRUCTURE
     1 R6E         1 TEMP              0 ****  ****    0 ROOT
