@<TRIPOS>MOLECULE
R6E
   33    32     1     0     0
SMALL
No Charge or Current Charge


@<TRIPOS>ATOM
      1 N            1.6510    -1.3690     1.3060 n8         1 R6E      -0.892800
      2 CA           1.6940    -0.2030     0.3410 c3         1 R6E       0.034200
      3 C            2.9580    -0.2510    -0.6610 c          1 R6E       0.903600
      4 O            2.7980    -0.1010    -1.8690 o          1 R6E      -0.837300
      5 CB           0.3520    -0.2340    -0.4800 c3         1 R6E      -0.046400
      6 CB2          1.8200     1.0930     1.2090 c3         1 R6E      -0.045400
      7 CG          -0.9700    -0.1170     0.3290 c3         1 R6E      -0.073400
      8 CG2          1.7930     2.4310     0.4330 c3         1 R6E      -0.079100
      9 CD          -2.2280    -0.1960    -0.5650 c3         1 R6E      -0.077400
     10 CE          -3.5450    -0.0720     0.2320 c3         1 R6E      -0.075400
     11 CZ          -4.8020    -0.1500    -0.6610 c3         1 R6E      -0.076400
     12 CH          -6.1170    -0.0260     0.1330 c3         1 R6E      -0.086100
     13 H1           1.5200    -2.2350     0.7750 hn         1 R6E       0.328300
     14 H2           2.5850    -1.4740     1.7170 hn         1 R6E       0.328300
     15 H7           0.3610     0.5730    -1.2230 hc         1 R6E       0.039700
     16 H8           0.3200    -1.1670    -1.0570 hc         1 R6E       0.039700
     17 H9           1.0290     1.1170     1.9690 hc         1 R6E       0.026700
     18 H10          2.7640     1.0510     1.7680 hc         1 R6E       0.026700
     19 H11         -1.0200    -0.9150     1.0800 hc         1 R6E       0.034700
     20 H12         -0.9890     0.8360     0.8700 hc         1 R6E       0.034700
     21 H13          2.5880     2.4700    -0.3200 hc         1 R6E       0.021033
     22 H14          0.8290     2.5810    -0.0670 hc         1 R6E       0.021033
     23 H15          1.9430     3.2680     1.1240 hc         1 R6E       0.021033
     24 H16         -2.1860     0.6020    -1.3160 hc         1 R6E       0.031200
     25 H17         -2.2250    -1.1490    -1.1080 hc         1 R6E       0.031200
     26 H18         -3.5880    -0.8700     0.9840 hc         1 R6E       0.032700
     27 H19         -3.5490     0.8810     0.7760 hc         1 R6E       0.032700
     28 H20         -4.7640     0.6480    -1.4130 hc         1 R6E       0.033700
     29 H21         -4.8030    -1.1030    -1.2050 hc         1 R6E       0.033700
     30 H22         -6.2010    -0.8330     0.8710 hc         1 R6E       0.024367
     31 H23         -6.1620     0.9340     0.6610 hc         1 R6E       0.024367
     32 H24         -6.9780    -0.0870    -0.5420 hc         1 R6E       0.024367
     33 OXT          4.0470    -0.5840    -0.2020 o          1 R6E      -0.837300
@<TRIPOS>BOND
     1     1     2 1   
     2     1    13 1   
     3     1    14 1   
     4     2     3 1   
     5     2     5 1   
     6     2     6 1   
     7     3     4 1   
     8     3    33 1   
     9     5     7 1   
    10     5    15 1   
    11     5    16 1   
    12     6     8 1   
    13     6    17 1   
    14     6    18 1   
    15     7     9 1   
    16     7    19 1   
    17     7    20 1   
    18     8    21 1   
    19     8    22 1   
    20     8    23 1   
    21     9    10 1   
    22     9    24 1   
    23     9    25 1   
    24    10    11 1   
    25    10    26 1   
    26    10    27 1   
    27    11    12 1   
    28    11    28 1   
    29    11    29 1   
    30    12    30 1   
    31    12    31 1   
    32    12    32 1   
@<TRIPOS>SUBSTRUCTURE
     1 R6E         1 TEMP              0 ****  ****    0 ROOT
