@<TRIPOS>MOLECULE
R6F
   52    54     1     0     0
SMALL
abcg2


@<TRIPOS>ATOM
      1 N1          20.9610    18.2020    36.9410 nc         1 R6F      -0.777700
      2 C2          20.0500    17.2850    36.7190 cd         1 R6F       0.747800
      3 C4          18.1720    18.6610    37.4530 c          1 R6F       0.490500
      4 C6          19.7170    21.7870    38.4100 ca         1 R6F       0.226300
      5 N           17.8210    19.8540    45.0590 ns         1 R6F      -0.447900
      6 CA          17.6680    19.1460    46.3200 c3         1 R6F      -0.036300
      7 O           15.7150    20.6740    44.9530 o          1 R6F      -0.660100
      8 CB          16.9850    17.7840    46.0920 c3         1 R6F      -0.047400
      9 CG          16.6230    17.0350    47.3670 c3         1 R6F      -0.185400
     10 CD          15.8570    15.7130    47.1580 c          1 R6F       0.705000
     11 OE1         15.1800    15.5740    46.1060 o          1 R6F      -0.771000
     12 OE2         15.9460    14.8660    48.0880 o          1 R6F      -0.771000
     13 C11         17.2000    21.2410    43.1780 ca         1 R6F      -0.150600
     14 C12         18.5080    21.4030    42.7080 ca         1 R6F      -0.040000
     15 C13         18.7760    22.0330    41.5070 ca         1 R6F      -0.196500
     16 C14         17.7330    22.5450    40.7040 ca         1 R6F       0.315000
     17 C15         16.4150    22.3750    41.1780 ca         1 R6F      -0.196500
     18 C16         16.1680    21.7460    42.3840 ca         1 R6F      -0.040000
     19 C4A         19.1840    19.6930    37.7020 ca         1 R6F       0.166500
     20 C7          21.0710    21.4940    38.1510 ca         1 R6F       0.078900
     21 C8A         20.5370    19.3960    37.4320 ca         1 R6F       0.317000
     22 C9          19.3100    23.1480    38.9390 c3         1 R6F       0.198500
     23 CT          19.0720    18.9810    46.9520 c          1 R6F       0.713000
     24 N10         17.9870    23.1940    39.5190 nh         1 R6F      -0.819400
     25 N3          18.7120    17.4850    36.9600 ns         1 R6F      -0.459400
     26 N5          18.7900    20.8780    38.1800 nb         1 R6F      -0.545000
     27 N8          21.4800    20.3370    37.6720 nb         1 R6F      -0.118000
     28 NA2         20.4050    16.0830    36.2460 nv         1 R6F      -1.062200
     29 O1          19.1320    18.9500    48.2040 o          1 R6F      -0.745000
     30 O2          20.0360    18.8670    46.1500 o          1 R6F      -0.745000
     31 O4          16.9700    18.7670    37.6420 o          1 R6F      -0.484000
     32 C102        16.8810    23.5530    38.6450 c3         1 R6F       0.222100
     33 HN          18.7310    19.7430    44.6380 hn         1 R6F       0.327500
     34 HA          17.0500    19.7490    46.9850 h1         1 R6F       0.054700
     35 HB1         16.0810    17.9640    45.5100 hc         1 R6F       0.031700
     36 HB2         17.6450    17.1720    45.4690 hc         1 R6F       0.031700
     37 HG1         17.5120    16.8260    47.9600 hc         1 R6F       0.031700
     38 HG2         15.9860    17.6720    47.9940 hc         1 R6F       0.031700
     39 H12         19.3520    21.0500    43.2870 ha         1 R6F       0.131500
     40 H13         19.8050    22.1240    41.1950 ha         1 R6F       0.095500
     41 H15         15.5780    22.7320    40.5970 ha         1 R6F       0.095500
     42 H16         15.1480    21.6300    42.7250 ha         1 R6F       0.131500
     43 H7          21.8320    22.2410    38.3530 h4         1 R6F       0.024100
     44 H92         20.0580    23.4860    39.6600 h1         1 R6F       0.052200
     45 H91         19.3430    23.8670    38.1190 h1         1 R6F       0.052200
     46 H31         18.0530    16.7380    36.7760 hn         1 R6F       0.325500
     47 HN22        21.3720    15.9250    36.0150 hn         1 R6F       0.509000
     48 HN21        19.7290    15.3820    35.9970 hn         1 R6F       0.509000
     49 H101        16.1910    24.2310    39.1500 h1         1 R6F       0.030033
     50 H102        17.2790    24.0650    37.7720 h1         1 R6F       0.030033
     51 H103        16.3220    22.6740    38.3070 h1         1 R6F       0.030033
     52 C           16.8520    20.5700    44.4630 c          1 R6F       0.586700
@<TRIPOS>BOND
     1     1     2 2   
     2     1    21 1   
     3     2    25 1   
     4     2    28 1   
     5     3    19 1   
     6     3    25 1   
     7     3    31 2   
     8     4    20 ar  
     9     4    22 1   
    10     4    26 ar  
    11     5     6 1   
    12     5    33 1   
    13     5    52 1   
    14     6     8 1   
    15     6    23 1   
    16     6    34 1   
    17     7    52 2   
    18     8     9 1   
    19     8    35 1   
    20     8    36 1   
    21     9    10 1   
    22     9    37 1   
    23     9    38 1   
    24    10    11 1   
    25    10    12 1   
    26    13    14 ar  
    27    13    18 ar  
    28    13    52 1   
    29    14    15 ar  
    30    14    39 1   
    31    15    16 ar  
    32    15    40 1   
    33    16    17 ar  
    34    16    24 1   
    35    17    18 ar  
    36    17    41 1   
    37    18    42 1   
    38    19    21 ar  
    39    19    26 ar  
    40    20    27 ar  
    41    20    43 1   
    42    21    27 ar  
    43    22    24 1   
    44    22    44 1   
    45    22    45 1   
    46    23    29 1   
    47    23    30 1   
    48    24    32 1   
    49    25    46 1   
    50    28    47 1   
    51    28    48 1   
    52    32    49 1   
    53    32    50 1   
    54    32    51 1   
@<TRIPOS>SUBSTRUCTURE
     1 R6F         1 TEMP              0 ****  ****    0 ROOT
