@<TRIPOS>MOLECULE
R6F
   52    54     1     0     0
SMALL
No Charge or Current Charge


@<TRIPOS>ATOM
      1 N1          19.8800    17.3070    37.3890 nc         1 R6F      -0.777700
      2 C2          19.3740    17.0540    36.2130 cd         1 R6F       0.747800
      3 C4          18.6330    19.2100    35.5670 c          1 R6F       0.490500
      4 C6          19.5700    21.3320    38.4530 ca         1 R6F       0.226300
      5 N           17.6050    20.1710    45.3760 ns         1 R6F      -0.447900
      6 CA          17.4070    19.4480    46.6560 c3         1 R6F      -0.036300
      7 O           15.5110    19.9180    44.5310 o          1 R6F      -0.660100
      8 CB          17.4830    17.9110    46.4530 c3         1 R6F      -0.047400
      9 CG          17.1510    17.0870    47.7230 c3         1 R6F      -0.185400
     10 CD          17.1780    15.5820    47.4050 c          1 R6F       0.705000
     11 OE1         16.1490    15.0520    47.0160 o          1 R6F      -0.771000
     12 OE2         18.2390    14.9860    47.5160 o          1 R6F      -0.771000
     13 C11         17.0850    21.0910    43.1480 ca         1 R6F      -0.150600
     14 C12         18.4010    21.5850    42.9800 ca         1 R6F      -0.040000
     15 C13         18.7610    22.2720    41.8070 ca         1 R6F      -0.196500
     16 C14         17.8280    22.4850    40.7790 ca         1 R6F       0.315000
     17 C15         16.5200    21.9980    40.9430 ca         1 R6F      -0.196500
     18 C16         16.1510    21.3080    42.1110 ca         1 R6F      -0.040000
     19 C4A         19.1720    19.6650    36.8960 ca         1 R6F       0.166500
     20 C7          20.1640    20.3710    39.2920 ca         1 R6F       0.078900
     21 C8A         19.7710    18.6760    37.7430 ca         1 R6F       0.317000
     22 C9          19.4630    22.8020    38.8820 c3         1 R6F       0.198500
     23 CT          18.4280    19.9640    47.7190 c          1 R6F       0.713000
     24 N10         18.2080    23.1680    39.6010 nh         1 R6F      -0.819400
     25 N3          18.7940    17.8840    35.3390 ns         1 R6F      -0.459400
     26 N5          19.0720    20.9830    37.2430 nb         1 R6F      -0.545000
     27 N8          20.2610    19.0720    38.9420 nb         1 R6F      -0.118000
     28 NA2         19.4700    15.7930    35.8620 nv         1 R6F      -1.062200
     29 O1          17.9930    20.3850    48.7830 o          1 R6F      -0.745000
     30 O2          19.6050    20.0620    47.3970 o          1 R6F      -0.745000
     31 O4          18.0910    19.9350    34.7430 o          1 R6F      -0.484000
     32 C102        17.2440    24.0220    38.8710 c3         1 R6F       0.222100
     33 HN          18.5220    20.5600    45.2000 hn         1 R6F       0.327500
     34 HA          16.4040    19.6960    47.0270 h1         1 R6F       0.054700
     35 HB1         16.7840    17.6220    45.6580 hc         1 R6F       0.031700
     36 HB2         18.4870    17.6420    46.0990 hc         1 R6F       0.031700
     37 HG1         17.9270    17.3310    48.4580 hc         1 R6F       0.031700
     38 HG2         16.1420    17.3940    48.0250 hc         1 R6F       0.031700
     39 H12         19.1600    21.4480    43.7460 ha         1 R6F       0.131500
     40 H13         19.7740    22.6500    41.7090 ha         1 R6F       0.095500
     41 H15         15.7810    22.1370    40.1590 ha         1 R6F       0.095500
     42 H16         15.1310    20.9400    42.2050 ha         1 R6F       0.131500
     43 H7          20.5710    20.6430    40.2640 h4         1 R6F       0.024100
     44 H92         20.3300    23.0460    39.5100 h1         1 R6F       0.052200
     45 H91         19.5680    23.4220    37.9800 h1         1 R6F       0.052200
     46 H31         18.4280    17.5260    34.4720 hn         1 R6F       0.325500
     47 HN22        20.0720    15.2680    36.4830 hn         1 R6F       0.509000
     48 HN21        19.6060    15.6000    34.8770 hn         1 R6F       0.509000
     49 H101        16.5250    24.4750    39.5670 h1         1 R6F       0.030033
     50 H102        17.7650    24.8390    38.3540 h1         1 R6F       0.030033
     51 H103        16.6920    23.4310    38.1280 h1         1 R6F       0.030033
     52 C           16.6520    20.3440    44.3940 c          1 R6F       0.586700
@<TRIPOS>BOND
     1     1     2 2   
     2     1    21 1   
     3     2    25 1   
     4     2    28 1   
     5     3    19 1   
     6     3    25 1   
     7     3    31 2   
     8     4    20 ar  
     9     4    22 1   
    10     4    26 ar  
    11     5     6 1   
    12     5    33 1   
    13     5    52 1   
    14     6     8 1   
    15     6    23 1   
    16     6    34 1   
    17     7    52 2   
    18     8     9 1   
    19     8    35 1   
    20     8    36 1   
    21     9    10 1   
    22     9    37 1   
    23     9    38 1   
    24    10    11 1   
    25    10    12 1   
    26    13    14 ar  
    27    13    18 ar  
    28    13    52 1   
    29    14    15 ar  
    30    14    39 1   
    31    15    16 ar  
    32    15    40 1   
    33    16    17 ar  
    34    16    24 1   
    35    17    18 ar  
    36    17    41 1   
    37    18    42 1   
    38    19    21 ar  
    39    19    26 ar  
    40    20    27 ar  
    41    20    43 1   
    42    21    27 ar  
    43    22    24 1   
    44    22    44 1   
    45    22    45 1   
    46    23    29 1   
    47    23    30 1   
    48    24    32 1   
    49    25    46 1   
    50    28    47 1   
    51    28    48 1   
    52    32    49 1   
    53    32    50 1   
    54    32    51 1   
@<TRIPOS>SUBSTRUCTURE
     1 R6F         1 TEMP              0 ****  ****    0 ROOT
