@<TRIPOS>MOLECULE
R6G
   81    84     1     0     0
SMALL
bcc


@<TRIPOS>ATOM
      1 C          -11.4050     0.1990    -2.2430 c3         1 R6G       0.139400
      2 O          -12.7810    -0.0320    -2.0220 oh         1 R6G      -0.600800
      3 N            5.2530    -4.4360    -0.5390 nu         1 R6G      -0.770600
      4 N1           4.1380     4.7120    -0.1310 n7         1 R6G      -0.782200
      5 C1           4.7930    -2.0810    -0.7510 ca         1 R6G      -0.320300
      6 C2           3.9360    -1.0150    -0.5340 ca         1 R6G       0.417000
      7 C3           2.6820    -1.1800     0.0470 ca         1 R6G      -0.192300
      8 C4           2.3230    -2.4810     0.4170 ca         1 R6G      -0.001000
      9 C5           3.1440    -3.5720     0.2280 ca         1 R6G      -0.190300
     10 C6           4.4140    -3.3730    -0.3700 ca         1 R6G       0.217600
     11 C7           1.8390    -0.0210     0.2210 cc         1 R6G       0.143000
     12 C8           2.2900     1.1900    -0.1860 cd         1 R6G      -0.202100
     13 C9           3.6150     1.3250    -0.7560 cd         1 R6G       0.327700
     14 O1           4.3770     0.2040    -0.9240 os         1 R6G      -0.414800
     15 C10          4.1220     2.4950    -1.1610 c2         1 R6G      -0.266200
     16 C11          3.3930     3.7950    -1.0080 c6         1 R6G       0.290900
     17 C12          1.9940     3.6140    -0.4690 c2         1 R6G      -0.156400
     18 C13          1.5230     2.4160    -0.1000 cf         1 R6G      -0.039200
     19 C14          0.4410    -0.2060     0.6820 ca         1 R6G      -0.024000
     20 C15         -0.5280    -0.3280    -0.3130 ca         1 R6G      -0.155000
     21 C16         -1.8660    -0.4920     0.0010 ca         1 R6G      -0.139000
     22 C17         -2.2610    -0.5430     1.3350 ca         1 R6G      -0.177600
     23 C18         -1.2910    -0.4440     2.3240 ca         1 R6G      -0.053000
     24 C19          0.0560    -0.2700     2.0250 ca         1 R6G      -0.123600
     25 C20          1.1460     4.8450    -0.3730 c3         1 R6G      -0.042900
     26 C22          1.0590    -0.1590     3.1700 c          1 R6G       0.918200
     27 O2           0.5860    -0.1580     4.3230 o          1 R6G      -0.803300
     28 O3           2.2570    -0.0850     2.8510 o          1 R6G      -0.803300
     29 C23         -3.6850    -0.7390     1.7460 c          1 R6G       0.683700
     30 O4          -3.9720    -1.2690     2.8130 o          1 R6G      -0.610100
     31 N2          -4.6150    -0.3060     0.8830 ns         1 R6G      -0.582900
     32 C24         -6.0370    -0.4480     1.1230 c3         1 R6G       0.107000
     33 C25         -6.8270    -0.1140    -0.1310 c3         1 R6G      -0.094400
     34 C26         -8.3250    -0.2960     0.0710 c3         1 R6G      -0.072400
     35 C27         -9.1310     0.0500    -1.1740 c3         1 R6G      -0.075400
     36 C28        -10.6280    -0.1650    -0.9940 c3         1 R6G      -0.082400
     37 C30          6.0340     6.2340     0.1540 c3         1 R6G      -0.092100
     38 C31          6.4620    -4.3620    -1.3290 c3         1 R6G       0.217800
     39 C32          7.1410    -5.7170    -1.3840 c3         1 R6G      -0.105100
     40 HC1        -11.0300    -0.3970    -3.0870 h1         1 R6G       0.014200
     41 HC2        -11.2130     1.2510    -2.4930 h1         1 R6G       0.014200
     42 H281       -10.9870     0.4360    -0.1520 hc         1 R6G       0.052200
     43 H282       -10.8170    -1.2120    -0.7370 hc         1 R6G       0.052200
     44 H            4.8250    -5.3460    -0.5020 hn         1 R6G       0.414800
     45 H311         6.2520    -4.0100    -2.3470 h1         1 R6G       0.037200
     46 H312         7.1440    -3.6340    -0.8820 h1         1 R6G       0.037200
     47 H1           3.5810     5.5520    -0.0190 hn         1 R6G       0.337800
     48 H291         6.0980     4.2720    -0.6930 h1         1 R6G       0.024200
     49 H292         5.3290     5.4620    -1.7290 h1         1 R6G       0.024200
     50 HA           5.7530    -1.8920    -1.2140 ha         1 R6G       0.137000
     51 H4           1.3510    -2.6400     0.8710 ha         1 R6G       0.148000
     52 H211         2.6760    -5.6480    -0.1810 hc         1 R6G       0.031033
     53 H212         3.3930    -5.3720     1.3990 hc         1 R6G       0.031033
     54 H213         1.7200    -4.9180     1.0970 hc         1 R6G       0.031033
     55 H13          0.5090     2.3420     0.2760 ha         1 R6G       0.134000
     56 H10          5.1010     2.5110    -1.6250 ha         1 R6G       0.124000
     57 H201         1.2030     5.4360    -1.2910 hc         1 R6G       0.029367
     58 H202         0.1010     4.5950    -0.1950 hc         1 R6G       0.029367
     59 H203         1.4630     5.5000     0.4430 hc         1 R6G       0.029367
     60 H15         -0.2280    -0.2950    -1.3530 ha         1 R6G       0.118000
     61 H16         -2.5810    -0.6030    -0.8040 ha         1 R6G       0.106000
     62 H18         -1.5850    -0.4940     3.3640 ha         1 R6G       0.176000
     63 HB          -4.3320     0.2560     0.0970 hn         1 R6G       0.312500
     64 H241        -6.2450    -1.4750     1.4310 h1         1 R6G       0.046200
     65 H242        -6.3540     0.1990     1.9480 h1         1 R6G       0.046200
     66 H251        -6.6230     0.9190    -0.4310 hc         1 R6G       0.040700
     67 H252        -6.4890    -0.7520    -0.9540 hc         1 R6G       0.040700
     68 H261        -8.5280    -1.3330     0.3600 hc         1 R6G       0.042700
     69 H262        -8.6620     0.3260     0.9080 hc         1 R6G       0.042700
     70 H271        -8.9430     1.0940    -1.4490 hc         1 R6G       0.036200
     71 H272        -8.7740    -0.5540    -2.0150 hc         1 R6G       0.036200
     72 H301         5.3960     7.1190     0.1780 hc         1 R6G       0.031033
     73 H302         6.1920     5.9060     1.1820 hc         1 R6G       0.031033
     74 H303         6.9980     6.5320    -0.2570 hc         1 R6G       0.031033
     75 H321         7.3980    -6.0700    -0.3850 hc         1 R6G       0.036700
     76 H322         6.4990    -6.4640    -1.8550 hc         1 R6G       0.036700
     77 H323         8.0580    -5.6540    -1.9670 hc         1 R6G       0.036700
     78 HO1        -13.2590     0.2430    -2.8100 ho         1 R6G       0.399000
     79 H11          3.2980     4.2550    -2.0120 h1         1 R6G       0.004700
     80 C21          2.7150    -4.9450     0.6560 c3         1 R6G      -0.029800
     81 C29          5.4180     5.1270    -0.6830 c3         1 R6G       0.154800
@<TRIPOS>BOND
     1     1     2 1   
     2     1    36 1   
     3     1    40 1   
     4     1    41 1   
     5     2    78 1   
     6     3    10 1   
     7     3    38 1   
     8     3    44 1   
     9     4    16 1   
    10     4    47 1   
    11     4    81 1   
    12     5     6 ar  
    13     5    10 ar  
    14     5    50 1   
    15     6     7 ar  
    16     6    14 1   
    17     7     8 ar  
    18     7    11 1   
    19     8     9 ar  
    20     8    51 1   
    21     9    10 ar  
    22     9    80 1   
    23    11    12 2   
    24    11    19 1   
    25    12    13 1   
    26    12    18 1   
    27    13    14 1   
    28    13    15 2   
    29    15    16 1   
    30    15    56 1   
    31    16    17 1   
    32    16    79 1   
    33    17    18 2   
    34    17    25 1   
    35    18    55 1   
    36    19    20 ar  
    37    19    24 ar  
    38    20    21 ar  
    39    20    60 1   
    40    21    22 ar  
    41    21    61 1   
    42    22    23 ar  
    43    22    29 1   
    44    23    24 ar  
    45    23    62 1   
    46    24    26 1   
    47    25    57 1   
    48    25    58 1   
    49    25    59 1   
    50    26    27 1   
    51    26    28 1   
    52    29    30 2   
    53    29    31 1   
    54    31    32 1   
    55    31    63 1   
    56    32    33 1   
    57    32    64 1   
    58    32    65 1   
    59    33    34 1   
    60    33    66 1   
    61    33    67 1   
    62    34    35 1   
    63    34    68 1   
    64    34    69 1   
    65    35    36 1   
    66    35    70 1   
    67    35    71 1   
    68    36    42 1   
    69    36    43 1   
    70    37    72 1   
    71    37    73 1   
    72    37    74 1   
    73    37    81 1   
    74    38    39 1   
    75    38    45 1   
    76    38    46 1   
    77    39    75 1   
    78    39    76 1   
    79    39    77 1   
    80    48    81 1   
    81    49    81 1   
    82    52    80 1   
    83    53    80 1   
    84    54    80 1   
@<TRIPOS>SUBSTRUCTURE
     1 R6G         1 TEMP              0 ****  ****    0 ROOT
