@<TRIPOS>MOLECULE
R6G
   81    84     1     0     0
SMALL
No Charge or Current Charge


@<TRIPOS>ATOM
      1 C          -11.5760    -1.1120    -2.1710 c3         1 R6G       0.162600
      2 O          -12.9730    -1.1210    -1.8640 oh         1 R6G      -0.663000
      3 N            4.8240    -4.5450    -0.9430 nu         1 R6G      -0.964200
      4 N1           4.5990     4.6430     0.2000 n7         1 R6G      -0.837400
      5 C1           4.6360    -2.1240    -0.9760 ca         1 R6G      -0.237000
      6 C2           3.8900    -0.9650    -0.7340 ca         1 R6G       0.242000
      7 C3           2.5940    -1.0360    -0.2240 ca         1 R6G      -0.127000
      8 C4           2.0390    -2.3000     0.0560 ca         1 R6G       0.017000
      9 C5           2.7770    -3.4780    -0.1820 ca         1 R6G      -0.190300
     10 C6           4.0860    -3.3840    -0.7030 ca         1 R6G       0.356000
     11 C7           1.8480     0.1980     0.0120 cc         1 R6G       0.143000
     12 C8           2.4360     1.4290    -0.2800 cd         1 R6G      -0.136800
     13 C9           3.7900     1.4310    -0.7860 cd         1 R6G       0.218000
     14 O1           4.4460     0.2520    -1.0080 os         1 R6G      -0.326000
     15 C10          4.4310     2.5900    -1.0800 c2         1 R6G      -0.316200
     16 C11          3.8190     3.9550    -0.8350 c6         1 R6G       0.290900
     17 C12          2.3560     3.8940    -0.3910 c2         1 R6G      -0.156400
     18 C13          1.7410     2.7150    -0.1270 cf         1 R6G      -0.089200
     19 C14          0.4640     0.1970     0.4930 ca         1 R6G      -0.024000
     20 C15         -0.5670    -0.0740    -0.4230 ca         1 R6G      -0.137000
     21 C16         -1.9110    -0.0630    -0.0210 ca         1 R6G      -0.121000
     22 C17         -2.2540     0.2260     1.3210 ca         1 R6G      -0.177600
     23 C18         -1.2140     0.4950     2.2380 ca         1 R6G      -0.035000
     24 C19          0.1410     0.4760     1.8430 ca         1 R6G      -0.123600
     25 C20          1.6460     5.2340    -0.2870 c3         1 R6G      -0.042900
     26 C22          1.2070     0.7620     2.8740 c          1 R6G       0.707600
     27 O2           1.0250     1.7010     3.6370 o          1 R6G      -0.698000
     28 O3           2.1530    -0.0070     2.9670 o          1 R6G      -0.698000
     29 C23         -3.6910     0.2530     1.8010 c          1 R6G       0.616700
     30 O4          -3.9890     0.4990     2.9620 o          1 R6G      -0.610100
     31 N2          -4.6580    -0.0150     0.8590 ns         1 R6G      -0.515900
     32 C24         -6.0940    -0.0350     1.1280 c3         1 R6G       0.107000
     33 C25         -6.9030    -0.3740    -0.1380 c3         1 R6G      -0.094400
     34 C26         -8.4260    -0.4030     0.1130 c3         1 R6G      -0.072400
     35 C27         -9.2410    -0.7430    -1.1540 c3         1 R6G      -0.075400
     36 C28        -10.7660    -0.7730    -0.9040 c3         1 R6G      -0.082400
     37 C30          6.5830     5.8530     1.0250 c3         1 R6G      -0.092100
     38 C31          6.2030    -4.6510    -1.4370 c3         1 R6G       0.217800
     39 C32          6.6170    -6.1270    -1.5400 c3         1 R6G      -0.105100
     40 HC1        -11.2640    -2.0940    -2.5500 h1         1 R6G       0.014200
     41 HC2        -11.3630    -0.3660    -2.9480 h1         1 R6G       0.014200
     42 H281       -11.0880     0.2040    -0.5220 hc         1 R6G       0.052200
     43 H282       -10.9890    -1.5130    -0.1260 hc         1 R6G       0.052200
     44 H            4.3470    -5.4160    -0.7160 hn         1 R6G       0.470000
     45 H311         6.2860    -4.1830    -2.4280 h1         1 R6G       0.037200
     46 H312         6.8890    -4.1300    -0.7550 h1         1 R6G       0.037200
     47 H1           4.0710     5.4810     0.4560 hn         1 R6G       0.393000
     48 H291         6.6030     4.2110    -0.3740 h1         1 R6G       0.024200
     49 H292         5.9460     5.7230    -1.0340 h1         1 R6G       0.024200
     50 HA           5.6390    -2.0290    -1.3760 ha         1 R6G       0.119000
     51 H4           1.0330    -2.3740     0.4620 ha         1 R6G       0.130000
     52 H211         2.0730    -5.4560    -0.7670 hc         1 R6G       0.031033
     53 H212         2.7250    -5.3790     0.8820 hc         1 R6G       0.031033
     54 H213         1.1230    -4.7230     0.5290 hc         1 R6G       0.031033
     55 H13          0.6960     2.7120     0.1850 ha         1 R6G       0.184000
     56 H10          5.4380     2.5740    -1.4870 ha         1 R6G       0.174000
     57 H201         1.7490     5.8080    -1.2160 hc         1 R6G       0.029367
     58 H202         0.5730     5.1090    -0.0970 hc         1 R6G       0.029367
     59 H203         2.0540     5.8410     0.5300 hc         1 R6G       0.029367
     60 H15         -0.3220    -0.2900    -1.4610 ha         1 R6G       0.100000
     61 H16         -2.6720    -0.2770    -0.7660 ha         1 R6G       0.088000
     62 H18         -1.4540     0.7150     3.2770 ha         1 R6G       0.158000
     63 HB          -4.3370    -0.2080    -0.0800 hn         1 R6G       0.312500
     64 H241        -6.2980    -0.7830     1.9070 h1         1 R6G       0.046200
     65 H242        -6.3970     0.9500     1.5070 h1         1 R6G       0.046200
     66 H251        -6.6800     0.3680    -0.9160 hc         1 R6G       0.040700
     67 H252        -6.5810    -1.3500    -0.5200 hc         1 R6G       0.040700
     68 H261        -8.6480    -1.1430     0.8930 hc         1 R6G       0.042700
     69 H262        -8.7470     0.5730     0.4980 hc         1 R6G       0.042700
     70 H271        -9.0190    -0.0030    -1.9340 hc         1 R6G       0.036200
     71 H272        -8.9200    -1.7190    -1.5380 hc         1 R6G       0.036200
     72 H301         5.9880     6.7450     1.2590 hc         1 R6G       0.031033
     73 H302         6.6400     5.2250     1.9220 hc         1 R6G       0.031033
     74 H303         7.5980     6.1770     0.7700 hc         1 R6G       0.031033
     75 H321         6.5680    -6.6150    -0.5590 hc         1 R6G       0.036700
     76 H322         5.9630    -6.6680    -2.2340 hc         1 R6G       0.036700
     77 H323         7.6470    -6.2040    -1.9090 hc         1 R6G       0.036700
     78 HO1        -13.4470    -1.3410    -2.6970 ho         1 R6G       0.438000
     79 H11          3.8750     4.5410    -1.7640 h1         1 R6G       0.004700
     80 C21          2.1400    -4.8320     0.1330 c3         1 R6G      -0.029800
     81 C29          5.9640     5.0750    -0.1480 c3         1 R6G       0.154800
@<TRIPOS>BOND
     1     1     2 1   
     2     1    36 1   
     3     1    40 1   
     4     1    41 1   
     5     2    78 1   
     6     3    10 1   
     7     3    38 1   
     8     3    44 1   
     9     4    16 1   
    10     4    47 1   
    11     4    81 1   
    12     5     6 ar  
    13     5    10 ar  
    14     5    50 1   
    15     6     7 ar  
    16     6    14 1   
    17     7     8 ar  
    18     7    11 1   
    19     8     9 ar  
    20     8    51 1   
    21     9    10 ar  
    22     9    80 1   
    23    11    12 2   
    24    11    19 1   
    25    12    13 1   
    26    12    18 1   
    27    13    14 1   
    28    13    15 2   
    29    15    16 1   
    30    15    56 1   
    31    16    17 1   
    32    16    79 1   
    33    17    18 2   
    34    17    25 1   
    35    18    55 1   
    36    19    20 ar  
    37    19    24 ar  
    38    20    21 ar  
    39    20    60 1   
    40    21    22 ar  
    41    21    61 1   
    42    22    23 ar  
    43    22    29 1   
    44    23    24 ar  
    45    23    62 1   
    46    24    26 1   
    47    25    57 1   
    48    25    58 1   
    49    25    59 1   
    50    26    27 1   
    51    26    28 1   
    52    29    30 2   
    53    29    31 1   
    54    31    32 1   
    55    31    63 1   
    56    32    33 1   
    57    32    64 1   
    58    32    65 1   
    59    33    34 1   
    60    33    66 1   
    61    33    67 1   
    62    34    35 1   
    63    34    68 1   
    64    34    69 1   
    65    35    36 1   
    66    35    70 1   
    67    35    71 1   
    68    36    42 1   
    69    36    43 1   
    70    37    72 1   
    71    37    73 1   
    72    37    74 1   
    73    37    81 1   
    74    38    39 1   
    75    38    45 1   
    76    38    46 1   
    77    39    75 1   
    78    39    76 1   
    79    39    77 1   
    80    48    81 1   
    81    49    81 1   
    82    52    80 1   
    83    53    80 1   
    84    54    80 1   
@<TRIPOS>SUBSTRUCTURE
     1 R6G         1 TEMP              0 ****  ****    0 ROOT
