@<TRIPOS>MOLECULE
R6H
   67    71     1     0     0
SMALL
No Charge or Current Charge


@<TRIPOS>ATOM
      1 C1         -20.4800   -33.4430    -6.2460 c3         1 R6H       0.160600
      2 C2         -20.7520   -34.8150    -8.2550 cc         1 R6H       0.092100
      3 C3         -20.9000   -35.9470    -7.5180 cd         1 R6H      -0.265000
      4 O4         -17.4150   -30.7240   -20.7180 os         1 R6H      -0.328100
      5 C7         -20.5170   -32.7140   -13.5460 ca         1 R6H      -0.148000
      6 C8         -20.4810   -32.2320   -14.8680 ca         1 R6H      -0.064000
      7 C9         -20.7270   -33.1040   -15.9460 ca         1 R6H       0.013100
      8 C10        -21.1600   -31.4130   -17.6290 ca         1 R6H       0.181100
      9 C11        -22.3550   -30.9170   -17.0910 ca         1 R6H      -0.253000
     10 C12        -22.8170   -29.6670   -17.5110 ca         1 R6H       0.375900
     11 C13        -21.0140   -29.3860   -18.9560 ca         1 R6H       0.302000
     12 C14        -20.3380   -28.6050   -19.9060 ca         1 R6H      -0.180000
     13 C15        -19.1350   -29.0530   -20.4950 ca         1 R6H       0.146100
     14 C16        -18.9230   -27.0050   -21.8740 c3         1 R6H       0.143900
     15 C19        -19.2710   -31.0990   -19.1700 ca         1 R6H      -0.149000
     16 C20        -20.4730   -30.6420   -18.5880 ca         1 R6H      -0.089000
     17 C21        -20.9850   -34.4630   -15.6880 ca         1 R6H       0.200000
     18 C22        -21.0210   -34.9420   -14.3690 ca         1 R6H      -0.211000
     19 C24        -20.1330   -39.0530    -8.0100 ca         1 R6H      -0.071000
     20 C27        -22.6850   -40.0570    -7.3970 ca         1 R6H      -0.149000
     21 C26        -21.5570   -40.8840    -7.2940 ca         1 R6H       0.185000
     22 C25        -20.2820   -40.3880    -7.5990 ca         1 R6H      -0.146000
     23 C28        -22.5490   -38.7150    -7.8100 ca         1 R6H      -0.019300
     24 C29        -23.7890   -37.8320    -7.9180 c3         1 R6H      -0.052800
     25 C23        -21.2600   -38.2120    -8.1160 ca         1 R6H      -0.025200
     26 N          -21.0820   -36.8920    -8.5250 na         1 R6H       0.247000
     27 N1         -21.0450   -36.4210    -9.8290 nd         1 R6H      -0.495800
     28 C4         -20.8420   -35.1170    -9.6340 cc         1 R6H       0.169500
     29 O          -20.5470   -33.5870    -7.6750 os         1 R6H      -0.298100
     30 C          -20.2450   -31.9560    -5.9400 c3         1 R6H      -0.094100
     31 C5         -20.7180   -34.0810   -10.7100 c          1 R6H       0.547600
     32 O1         -20.5310   -32.8830   -10.5080 o          1 R6H      -0.558100
     33 N2         -20.8430   -34.6350   -11.9790 ns         1 R6H      -0.142000
     34 C6         -20.7920   -34.0760   -13.2850 ca         1 R6H       0.022000
     35 O2         -20.6820   -32.6500   -17.2490 os         1 R6H      -0.234200
     36 N3         -22.1630   -28.9140   -18.4220 nb         1 R6H      -0.683000
     37 C17        -18.5970   -30.3080   -20.1260 ca         1 R6H       0.115100
     38 C18        -16.7920   -31.9830   -20.4060 c3         1 R6H       0.144900
     39 O3         -18.4560   -28.2930   -21.4340 os         1 R6H      -0.326100
     40 H1         -21.4180   -33.7690    -5.7780 h1         1 R6H       0.033200
     41 H2         -19.6550   -34.0370    -5.8330 h1         1 R6H       0.033200
     42 H3         -20.8980   -36.1620    -6.4570 h4         1 R6H       0.168000
     43 H4         -20.3220   -32.0120   -12.7420 ha         1 R6H       0.160000
     44 H5         -20.2570   -31.1830   -15.0500 ha         1 R6H       0.135000
     45 H6         -22.9250   -31.4870   -16.3640 ha         1 R6H       0.133000
     46 H7         -23.7420   -29.2530   -17.1110 h4         1 R6H       0.017100
     47 H8         -20.7680   -27.6460   -20.1740 ha         1 R6H       0.138000
     48 H9         -18.2340   -26.5850   -22.6170 h1         1 R6H       0.045033
     49 H10        -19.9140   -27.0860   -22.3380 h1         1 R6H       0.045033
     50 H11        -18.9830   -26.3030   -21.0320 h1         1 R6H       0.045033
     51 H12        -18.8720   -32.0650   -18.8740 ha         1 R6H       0.136000
     52 H13        -21.2280   -35.9950   -14.1950 ha         1 R6H       0.135000
     53 H14        -19.1430   -38.6680    -8.2480 ha         1 R6H       0.134000
     54 H15        -23.6640   -40.4620    -7.1560 ha         1 R6H       0.141000
     55 H16        -19.4140   -41.0370    -7.5160 ha         1 R6H       0.143000
     56 H17        -23.8970   -37.4280    -8.9310 hc         1 R6H       0.056367
     57 H18        -24.7060   -38.3860    -7.6870 hc         1 R6H       0.056367
     58 H19        -23.7320   -36.9860    -7.2220 hc         1 R6H       0.056367
     59 H20        -20.1870   -31.7960    -4.8570 hc         1 R6H       0.052033
     60 H21        -19.3060   -31.6130    -6.3890 hc         1 R6H       0.052033
     61 H22        -21.0660   -31.3460    -6.3340 hc         1 R6H       0.052033
     62 H23        -21.0010   -35.6350   -11.9680 hn         1 R6H       0.174000
     63 H24        -15.8710   -32.1050   -20.9890 h1         1 R6H       0.043700
     64 H25        -16.5300   -32.0350   -19.3420 h1         1 R6H       0.043700
     65 H26        -17.4600   -32.8200   -20.6470 h1         1 R6H       0.043700
     66 F          -21.2090   -35.3200   -16.7110 f          1 R6H      -0.165000
     67 F1         -21.7010   -42.1680    -6.8980 f          1 R6H      -0.173000
@<TRIPOS>BOND
     1     1    29 1   
     2     1    30 1   
     3     1    40 1   
     4     1    41 1   
     5     2     3 2   
     6     2    28 1   
     7     2    29 1   
     8     3    26 1   
     9     3    42 1   
    10     4    37 1   
    11     4    38 1   
    12     5     6 ar  
    13     5    34 ar  
    14     5    43 1   
    15     6     7 ar  
    16     6    44 1   
    17     7    17 ar  
    18     7    35 1   
    19     8     9 ar  
    20     8    16 ar  
    21     8    35 1   
    22     9    10 ar  
    23     9    45 1   
    24    10    36 ar  
    25    10    46 1   
    26    11    12 ar  
    27    11    16 ar  
    28    11    36 ar  
    29    12    13 ar  
    30    12    47 1   
    31    13    37 ar  
    32    13    39 1   
    33    14    39 1   
    34    14    48 1   
    35    14    49 1   
    36    14    50 1   
    37    15    16 ar  
    38    15    37 ar  
    39    15    51 1   
    40    17    18 ar  
    41    17    66 1   
    42    18    34 ar  
    43    18    52 1   
    44    19    22 ar  
    45    19    25 ar  
    46    19    53 1   
    47    20    21 ar  
    48    20    23 ar  
    49    20    54 1   
    50    21    22 ar  
    51    21    67 1   
    52    22    55 1   
    53    23    24 1   
    54    23    25 ar  
    55    24    56 1   
    56    24    57 1   
    57    24    58 1   
    58    25    26 1   
    59    26    27 1   
    60    27    28 2   
    61    28    31 1   
    62    30    59 1   
    63    30    60 1   
    64    30    61 1   
    65    31    32 2   
    66    31    33 1   
    67    33    34 1   
    68    33    62 1   
    69    38    63 1   
    70    38    64 1   
    71    38    65 1   
@<TRIPOS>SUBSTRUCTURE
     1 R6H         1 TEMP              0 ****  ****    0 ROOT
