@<TRIPOS>MOLECULE
R6H
   67    71     1     0     0
SMALL
abcg2


@<TRIPOS>ATOM
      1 C1         -20.2410   -33.6490    -5.7790 c3         1 R6H       0.160600
      2 C2         -20.5200   -34.7360    -7.8530 cc         1 R6H       0.092100
      3 C3         -20.9210   -35.9500    -7.3250 cd         1 R6H      -0.265000
      4 O4         -17.7710   -30.6540   -21.0680 os         1 R6H      -0.328100
      5 C7         -19.6710   -32.5380   -12.9630 ca         1 R6H      -0.148000
      6 C8         -19.5100   -31.9930   -14.2290 ca         1 R6H      -0.064000
      7 C9         -19.8960   -32.6910   -15.3610 ca         1 R6H       0.013100
      8 C10        -20.6030   -31.2690   -17.1140 ca         1 R6H       0.181100
      9 C11        -21.7620   -30.9100   -16.4660 ca         1 R6H      -0.253000
     10 C12        -22.5960   -29.9600   -17.0790 ca         1 R6H       0.375900
     11 C13        -21.2030   -29.7360   -18.8850 ca         1 R6H       0.302000
     12 C14        -20.9140   -29.1280   -20.1310 ca         1 R6H      -0.180000
     13 C15        -19.7780   -29.4490   -20.8290 ca         1 R6H       0.146100
     14 C16        -20.2730   -27.9190   -22.5870 c3         1 R6H       0.143900
     15 C19        -19.1160   -31.0130   -19.0920 ca         1 R6H      -0.149000
     16 C20        -20.2860   -30.6880   -18.3650 ca         1 R6H      -0.089000
     17 C21        -20.4380   -33.9590   -15.2050 ca         1 R6H       0.200000
     18 C22        -20.6070   -34.5300   -13.9630 ca         1 R6H      -0.211000
     19 C24        -20.7530   -39.0500    -7.7290 ca         1 R6H      -0.071000
     20 C27        -23.2190   -39.8270    -8.7430 ca         1 R6H      -0.149000
     21 C26        -22.3660   -40.7350    -8.1440 ca         1 R6H       0.185000
     22 C25        -21.1350   -40.3800    -7.6250 ca         1 R6H      -0.146000
     23 C28        -22.8490   -38.4860    -8.8420 ca         1 R6H      -0.019300
     24 C29        -23.7820   -37.4810    -9.4550 c3         1 R6H      -0.052800
     25 C23        -21.5970   -38.1240    -8.3300 ca         1 R6H      -0.025200
     26 N          -21.1700   -36.7640    -8.3930 na         1 R6H       0.247000
     27 N1         -20.9550   -36.1600    -9.5580 nd         1 R6H      -0.495800
     28 C4         -20.5560   -34.9150    -9.2610 cc         1 R6H       0.169500
     29 O          -20.1750   -33.6030    -7.2180 os         1 R6H      -0.298100
     30 C          -19.8220   -32.2990    -5.2490 c3         1 R6H      -0.094100
     31 C5         -20.2230   -33.9510   -10.3270 c          1 R6H       0.547600
     32 O1         -19.7990   -32.8260   -10.0810 o          1 R6H      -0.558100
     33 N2         -20.4330   -34.4390   -11.5870 ns         1 R6H      -0.142000
     34 C6         -20.2290   -33.8140   -12.8200 ca         1 R6H       0.022000
     35 O2         -19.7030   -32.1760   -16.6300 os         1 R6H      -0.234200
     36 N3         -22.3480   -29.3810   -18.2370 nb         1 R6H      -0.683000
     37 C17        -18.8580   -30.4150   -20.2980 ca         1 R6H       0.115100
     38 C18        -16.8100   -31.5960   -20.5890 c3         1 R6H       0.144900
     39 O3         -19.4250   -28.9190   -22.0200 os         1 R6H      -0.326100
     40 H1         -21.2640   -33.8950    -5.4820 h1         1 R6H       0.033200
     41 H2         -19.5770   -34.4420    -5.4220 h1         1 R6H       0.033200
     42 H3         -21.0580   -36.2910    -6.3150 h4         1 R6H       0.168000
     43 H4         -19.3700   -31.9830   -12.0910 ha         1 R6H       0.160000
     44 H5         -19.0840   -31.0050   -14.3460 ha         1 R6H       0.135000
     45 H6         -22.0350   -31.3360   -15.5120 ha         1 R6H       0.133000
     46 H7         -23.5120   -29.6690   -16.5750 h4         1 R6H       0.017100
     47 H8         -21.6200   -28.4050   -20.5110 ha         1 R6H       0.138000
     48 H9         -19.8010   -27.6260   -23.5210 h1         1 R6H       0.045033
     49 H10        -21.2700   -28.3200   -22.7850 h1         1 R6H       0.045033
     50 H11        -20.3520   -27.0560   -21.9230 h1         1 R6H       0.045033
     51 H12        -18.4330   -31.7380   -18.6800 ha         1 R6H       0.136000
     52 H13        -21.0360   -35.5220   -13.8860 ha         1 R6H       0.135000
     53 H14        -19.7950   -38.7260    -7.3460 ha         1 R6H       0.134000
     54 H15        -24.1790   -40.1600    -9.1160 ha         1 R6H       0.141000
     55 H16        -20.4980   -41.1200    -7.1620 ha         1 R6H       0.143000
     56 H17        -23.4670   -37.2190   -10.4670 hc         1 R6H       0.056367
     57 H18        -24.7920   -37.8850    -9.5060 hc         1 R6H       0.056367
     58 H19        -23.8000   -36.5570    -8.8750 hc         1 R6H       0.056367
     59 H20        -19.8630   -32.3080    -4.1580 hc         1 R6H       0.052033
     60 H21        -18.8010   -32.0620    -5.5530 hc         1 R6H       0.052033
     61 H22        -20.4890   -31.5160    -5.6120 hc         1 R6H       0.052033
     62 H23        -20.8040   -35.3800   -11.6190 hn         1 R6H       0.174000
     63 H24        -16.0290   -31.6320   -21.3440 h1         1 R6H       0.043700
     64 H25        -16.3890   -31.2700   -19.6350 h1         1 R6H       0.043700
     65 H26        -17.2590   -32.5840   -20.4720 h1         1 R6H       0.043700
     66 F          -20.8130   -34.6490   -16.3040 f          1 R6H      -0.165000
     67 F1         -22.7610   -42.0280    -8.0540 f          1 R6H      -0.173000
@<TRIPOS>BOND
     1     1    29 1   
     2     1    30 1   
     3     1    40 1   
     4     1    41 1   
     5     2     3 2   
     6     2    28 1   
     7     2    29 1   
     8     3    26 1   
     9     3    42 1   
    10     4    37 1   
    11     4    38 1   
    12     5     6 ar  
    13     5    34 ar  
    14     5    43 1   
    15     6     7 ar  
    16     6    44 1   
    17     7    17 ar  
    18     7    35 1   
    19     8     9 ar  
    20     8    16 ar  
    21     8    35 1   
    22     9    10 ar  
    23     9    45 1   
    24    10    36 ar  
    25    10    46 1   
    26    11    12 ar  
    27    11    16 ar  
    28    11    36 ar  
    29    12    13 ar  
    30    12    47 1   
    31    13    37 ar  
    32    13    39 1   
    33    14    39 1   
    34    14    48 1   
    35    14    49 1   
    36    14    50 1   
    37    15    16 ar  
    38    15    37 ar  
    39    15    51 1   
    40    17    18 ar  
    41    17    66 1   
    42    18    34 ar  
    43    18    52 1   
    44    19    22 ar  
    45    19    25 ar  
    46    19    53 1   
    47    20    21 ar  
    48    20    23 ar  
    49    20    54 1   
    50    21    22 ar  
    51    21    67 1   
    52    22    55 1   
    53    23    24 1   
    54    23    25 ar  
    55    24    56 1   
    56    24    57 1   
    57    24    58 1   
    58    25    26 1   
    59    26    27 1   
    60    27    28 2   
    61    28    31 1   
    62    30    59 1   
    63    30    60 1   
    64    30    61 1   
    65    31    32 2   
    66    31    33 1   
    67    33    34 1   
    68    33    62 1   
    69    38    63 1   
    70    38    64 1   
    71    38    65 1   
@<TRIPOS>SUBSTRUCTURE
     1 R6H         1 TEMP              0 ****  ****    0 ROOT
