@<TRIPOS>MOLECULE
R6I
   56    58     1     0     0
SMALL
abcg2


@<TRIPOS>ATOM
      1 C4          23.2060    18.9480   144.7490 ca         1 R6I       0.215000
      2 C5          22.5390    18.6790   145.9330 ca         1 R6I      -0.177000
      3 C6          21.1680    18.9130   145.9750 ca         1 R6I       0.121100
      4 C8          21.0190    18.2640   148.2590 c3         1 R6I       0.151900
      5 C13         24.7390    21.7410   144.2200 c3         1 R6I      -0.334400
      6 C17         25.7230    24.0030   142.8390 c3         1 R6I      -0.338100
      7 C20         15.6970    20.1310   143.8270 ca         1 R6I      -0.103000
      8 C21         16.8080    20.0690   144.6520 ca         1 R6I       0.288500
      9 C26         16.4650    22.0450   148.3100 c3         1 R6I      -0.115600
     10 C28         18.1630    19.7590   144.0780 c          1 R6I       0.513600
     11 O7          20.4040    18.7000   147.0630 os         1 R6I      -0.351100
     12 N9          24.5880    18.8390   144.5120 nu         1 R6I      -0.665000
     13 N10         24.8420    19.4280   143.2410 n3         1 R6I      -0.470400
     14 C12         25.5220    20.7000   143.4140 c3         1 R6I       0.201800
     15 S14         25.6190    23.2810   144.4640 s6         1 R6I       1.084000
     16 O16         26.9760    22.9810   144.9230 o          1 R6I      -0.518500
     17 O15         24.7840    24.1450   145.2980 o          1 R6I      -0.518500
     18 C11         23.5550    19.5360   142.5300 c5         1 R6I       0.186100
     19 C3          22.5440    19.4260   143.6340 ca         1 R6I      -0.179300
     20 C2          21.1860    19.6810   143.6750 ca         1 R6I      -0.056000
     21 C1          20.4860    19.4300   144.8520 ca         1 R6I      -0.064000
     22 N29         19.1250    19.7050   145.0170 ns         1 R6I      -0.122000
     23 O30         18.3210    19.5830   142.8810 o          1 R6I      -0.595100
     24 N22         16.7440    20.2730   145.9610 nb         1 R6I      -0.692000
     25 C19         14.4770    20.4180   144.4200 ca         1 R6I      -0.091000
     26 C18         14.4110    20.6320   145.7880 ca         1 R6I      -0.110000
     27 C23         15.5840    20.5510   146.5350 ca         1 R6I       0.361300
     28 C27         16.2560    19.5780   148.7330 c3         1 R6I      -0.115600
     29 O25         14.3010    20.9730   148.4580 oh         1 R6I      -0.665000
     30 H1          23.0780    18.3090   146.7940 ha         1 R6I       0.132000
     31 H2          20.2270    18.1850   148.9990 h1         1 R6I       0.044033
     32 H3          21.4900    17.2850   148.1400 h1         1 R6I       0.044033
     33 H4          21.7670    18.9770   148.6140 h1         1 R6I       0.044033
     34 H5          24.5340    21.3870   145.2330 h1         1 R6I       0.111200
     35 H6          23.7880    22.0090   143.7530 h1         1 R6I       0.111200
     36 H7          26.3170    23.3690   142.1850 h1         1 R6I       0.102033
     37 H8          24.7230    24.1350   142.4330 h1         1 R6I       0.102033
     38 H9          26.2100    24.9710   142.9510 h1         1 R6I       0.102033
     39 H10         15.7820    19.9600   142.7640 ha         1 R6I       0.148000
     40 H11         16.5120    22.2370   149.3850 hc         1 R6I       0.047367
     41 H12         17.4850    21.9290   147.9480 hc         1 R6I       0.047367
     42 H13         16.0270    22.9190   147.8260 hc         1 R6I       0.047367
     43 H14         24.9230    17.8820   144.5260 hn         1 R6I       0.461000
     44 H15         25.7440    21.0800   142.4150 h1         1 R6I       0.067700
     45 H16         26.4770    20.5060   143.9020 h1         1 R6I       0.067700
     46 H17         23.5060    20.4710   141.9690 h1         1 R6I       0.067200
     47 H18         23.4410    18.7210   141.8080 h1         1 R6I       0.067200
     48 H19         20.6770    20.0760   142.8090 ha         1 R6I       0.148000
     49 H20         18.7900    19.8370   145.9640 hn         1 R6I       0.196000
     50 H21         13.5790    20.4760   143.8190 ha         1 R6I       0.125000
     51 H22         13.4660    20.8600   146.2570 ha         1 R6I       0.146000
     52 H23         16.2770    19.7420   149.8130 hc         1 R6I       0.047367
     53 H24         15.6810    18.6720   148.5360 hc         1 R6I       0.047367
     54 H25         17.2810    19.4120   148.4030 hc         1 R6I       0.047367
     55 H26         14.3090    21.1570   149.4040 ho         1 R6I       0.451000
     56 C24         15.6350    20.7890   148.0340 c3         1 R6I       0.136700
@<TRIPOS>BOND
     1     1     2 ar  
     2     1    12 1   
     3     1    19 ar  
     4     2     3 ar  
     5     2    30 1   
     6     3    11 1   
     7     3    21 ar  
     8     4    11 1   
     9     4    31 1   
    10     4    32 1   
    11     4    33 1   
    12     5    14 1   
    13     5    15 1   
    14     5    34 1   
    15     5    35 1   
    16     6    15 1   
    17     6    36 1   
    18     6    37 1   
    19     6    38 1   
    20     7     8 ar  
    21     7    25 ar  
    22     7    39 1   
    23     8    10 1   
    24     8    24 ar  
    25     9    40 1   
    26     9    41 1   
    27     9    42 1   
    28     9    56 1   
    29    10    22 1   
    30    10    23 2   
    31    12    13 1   
    32    12    43 1   
    33    13    14 1   
    34    13    18 1   
    35    14    44 1   
    36    14    45 1   
    37    15    16 2   
    38    15    17 2   
    39    18    19 1   
    40    18    46 1   
    41    18    47 1   
    42    19    20 ar  
    43    20    21 ar  
    44    20    48 1   
    45    21    22 1   
    46    22    49 1   
    47    24    27 ar  
    48    25    26 ar  
    49    25    50 1   
    50    26    27 ar  
    51    26    51 1   
    52    27    56 1   
    53    28    52 1   
    54    28    53 1   
    55    28    54 1   
    56    28    56 1   
    57    29    55 1   
    58    29    56 1   
@<TRIPOS>SUBSTRUCTURE
     1 R6I         1 TEMP              0 ****  ****    0 ROOT
