@<TRIPOS>MOLECULE
R6I
   56    58     1     0     0
SMALL
No Charge or Current Charge


@<TRIPOS>ATOM
      1 C4          23.1900    19.3250   144.9790 ca         1 R6I       0.215000
      2 C5          22.5040    19.1560   146.1820 ca         1 R6I      -0.177000
      3 C6          21.1080    19.3890   146.1930 ca         1 R6I       0.121100
      4 C8          20.9380    18.8710   148.6070 c3         1 R6I       0.151900
      5 C13         25.4520    21.8860   143.8560 c3         1 R6I      -0.334400
      6 C17         26.8890    23.4380   141.9470 c3         1 R6I      -0.338100
      7 C20         15.5700    20.8270   143.9080 ca         1 R6I      -0.103000
      8 C21         16.6490    20.4600   144.7410 ca         1 R6I       0.288500
      9 C26         14.9220    21.3180   148.8900 c3         1 R6I      -0.115600
     10 C28         18.0620    20.3610   144.1590 c          1 R6I       0.513600
     11 O7          20.3570    19.2540   147.3470 os         1 R6I      -0.351100
     12 N9          24.5390    19.1380   144.7340 nu         1 R6I      -0.665000
     13 N10         24.8270    19.4740   143.3730 n3         1 R6I      -0.470400
     14 C12         25.8590    20.5360   143.2290 c3         1 R6I       0.201800
     15 S14         26.7380    23.1290   143.7070 s6         1 R6I       1.084000
     16 O16         28.0010    22.5460   144.1720 o          1 R6I      -0.518500
     17 O15         26.2410    24.3620   144.3310 o          1 R6I      -0.518500
     18 C11         23.5250    19.7200   142.6540 c5         1 R6I       0.186100
     19 C3          22.5460    19.6790   143.8120 ca         1 R6I      -0.179300
     20 C2          21.1630    19.9110   143.7940 ca         1 R6I      -0.056000
     21 C1          20.4330    19.7700   145.0010 ca         1 R6I      -0.064000
     22 N29         19.0270    19.9850   145.0870 ns         1 R6I      -0.122000
     23 O30         18.3110    20.5950   142.9760 o          1 R6I      -0.595100
     24 N22         16.4590    20.1910   146.0680 nb         1 R6I      -0.692000
     25 C19         14.2770    20.9210   144.4460 ca         1 R6I      -0.091000
     26 C18         14.0990    20.6400   145.8090 ca         1 R6I      -0.110000
     27 C23         15.2080    20.2680   146.5970 ca         1 R6I       0.361300
     28 C27         16.1870    19.1240   148.7130 c3         1 R6I      -0.115600
     29 O25         13.8190    19.2490   148.3680 oh         1 R6I      -0.665000
     30 H1          23.0510    18.8630   147.0710 ha         1 R6I       0.132000
     31 H2          20.1650    18.8250   149.3830 h1         1 R6I       0.044033
     32 H3          21.4070    17.8810   148.5360 h1         1 R6I       0.044033
     33 H4          21.6960    19.5990   148.9240 h1         1 R6I       0.044033
     34 H5          25.2690    21.7680   144.9280 h1         1 R6I       0.111200
     35 H6          24.5600    22.2990   143.3770 h1         1 R6I       0.111200
     36 H7          27.2590    22.5240   141.4700 h1         1 R6I       0.102033
     37 H8          25.8990    23.7130   141.5680 h1         1 R6I       0.102033
     38 H9          27.6010    24.2600   141.8180 h1         1 R6I       0.102033
     39 H10         15.7380    21.0390   142.8550 ha         1 R6I       0.148000
     40 H11         14.7920    21.1500   149.9660 hc         1 R6I       0.047367
     41 H12         15.8290    21.9190   148.7480 hc         1 R6I       0.047367
     42 H13         14.0690    21.9060   148.5310 hc         1 R6I       0.047367
     43 H14         24.9500    18.2990   145.1630 hn         1 R6I       0.461000
     44 H15         26.0740    20.6820   142.1610 h1         1 R6I       0.067700
     45 H16         26.7940    20.1930   143.6950 h1         1 R6I       0.067700
     46 H17         23.4950    20.6840   142.1280 h1         1 R6I       0.067200
     47 H18         23.3070    18.9230   141.9300 h1         1 R6I       0.067200
     48 H19         20.6870    20.1830   142.8570 ha         1 R6I       0.148000
     49 H20         18.6490    19.8340   146.0160 hn         1 R6I       0.196000
     50 H21         13.4330    21.2060   143.8210 ha         1 R6I       0.125000
     51 H22         13.1110    20.7090   146.2560 ha         1 R6I       0.146000
     52 H23         16.0080    18.8950   149.7710 hc         1 R6I       0.047367
     53 H24         16.2840    18.1750   148.1720 hc         1 R6I       0.047367
     54 H25         17.1450    19.6540   148.6480 hc         1 R6I       0.047367
     55 H26         13.7740    19.0800   149.3340 ho         1 R6I       0.451000
     56 C24         15.0340    19.9810   148.1220 c3         1 R6I       0.136700
@<TRIPOS>BOND
     1     1     2 ar  
     2     1    12 1   
     3     1    19 ar  
     4     2     3 ar  
     5     2    30 1   
     6     3    11 1   
     7     3    21 ar  
     8     4    11 1   
     9     4    31 1   
    10     4    32 1   
    11     4    33 1   
    12     5    14 1   
    13     5    15 1   
    14     5    34 1   
    15     5    35 1   
    16     6    15 1   
    17     6    36 1   
    18     6    37 1   
    19     6    38 1   
    20     7     8 ar  
    21     7    25 ar  
    22     7    39 1   
    23     8    10 1   
    24     8    24 ar  
    25     9    40 1   
    26     9    41 1   
    27     9    42 1   
    28     9    56 1   
    29    10    22 1   
    30    10    23 2   
    31    12    13 1   
    32    12    43 1   
    33    13    14 1   
    34    13    18 1   
    35    14    44 1   
    36    14    45 1   
    37    15    16 2   
    38    15    17 2   
    39    18    19 1   
    40    18    46 1   
    41    18    47 1   
    42    19    20 ar  
    43    20    21 ar  
    44    20    48 1   
    45    21    22 1   
    46    22    49 1   
    47    24    27 ar  
    48    25    26 ar  
    49    25    50 1   
    50    26    27 ar  
    51    26    51 1   
    52    27    56 1   
    53    28    52 1   
    54    28    53 1   
    55    28    54 1   
    56    28    56 1   
    57    29    55 1   
    58    29    56 1   
@<TRIPOS>SUBSTRUCTURE
     1 R6I         1 TEMP              0 ****  ****    0 ROOT
