@<TRIPOS>MOLECULE
R6K
   84    89     1     0     0
SMALL
No Charge or Current Charge


@<TRIPOS>ATOM
      1 C1          -9.9400    23.3890     8.5750 c6         1 R6K       0.163800
      2 C2         -10.2550    24.5270     7.5510 c6         1 R6K       0.164800
      3 C3          -9.3890    25.9140     5.6920 c3         1 R6K       0.215100
      4 N6           6.1170    28.6290    -7.6940 na         1 R6K       0.136800
      5 C7          -6.1490    26.6020     2.8280 cp         1 R6K      -0.034000
      6 C8          -6.4830    27.5740     3.8040 ca         1 R6K      -0.103000
      7 C9          -7.5230    27.3560     4.7240 ca         1 R6K      -0.101000
      8 C10         -5.0390    26.8350     1.8490 cp         1 R6K      -0.027000
      9 C11         -5.1150    26.3410     0.5220 ca         1 R6K      -0.104000
     10 C12         -4.0750    26.5600    -0.3970 ca         1 R6K      -0.092500
     11 C13         -2.9280    27.2800    -0.0150 ca         1 R6K      -0.082300
     12 C14         -1.8020    27.5180    -1.0120 c3         1 R6K       0.202900
     13 C15          0.3420    26.5010    -1.7030 c5         1 R6K       0.149300
     14 C16          1.1620    25.2160    -1.3670 c5         1 R6K      -0.079400
     15 C19          0.0220    26.3880    -3.2460 c5         1 R6K       0.080700
     16 C21          1.2990    29.6470    -4.7670 ca         1 R6K      -0.280600
     17 C22          2.4610    29.2160    -5.4490 ca         1 R6K      -0.013000
     18 C24          2.8730    31.5260    -6.0180 ca         1 R6K       0.421900
     19 C27          5.4140    30.6110    -7.5160 cc         1 R6K       0.248900
     20 C30         -2.8340    27.7750     1.2980 ca         1 R6K      -0.092500
     21 C31         -3.8750    27.5570     2.2160 ca         1 R6K      -0.104000
     22 C32         -7.8900    25.1660     7.5320 c6         1 R6K       0.164800
     23 C33         -7.5760    24.0290     8.5580 c6         1 R6K       0.163800
     24 O1          -0.7560    28.9910    -3.7240 o          1 R6K      -0.640100
     25 C25          1.0320    31.0220    -4.7730 ca         1 R6K       0.651900
     26 N4           0.0040    31.6110    -4.1720 nv         1 R6K      -1.053900
     27 N3           1.7660    31.9460    -5.3700 nb         1 R6K      -0.760000
     28 C23          3.2740    30.1740    -6.0900 ca         1 R6K      -0.109000
     29 C26          4.4960    29.8050    -6.8210 cc         1 R6K      -0.138000
     30 C29          4.9470    28.5220    -6.9320 cd         1 R6K      -0.169000
     31 N5           6.4080    29.9370    -8.0590 nd         1 R6K      -0.520800
     32 N2           0.8650    27.4030    -3.9080 ns         1 R6K      -0.495900
     33 C18          0.6520    25.0310    -3.6840 c5         1 R6K      -0.090400
     34 C17          1.8530    24.8830    -2.7120 c5         1 R6K      -0.076400
     35 O           -0.8860    26.4110    -0.9370 os         1 R6K      -0.451000
     36 C6          -6.9010    25.4000     2.8130 ca         1 R6K      -0.103000
     37 C5          -7.9410    25.1810     3.7330 ca         1 R6K      -0.101000
     38 C4          -8.2590    26.1570     4.6940 ca         1 R6K      -0.083300
     39 N1          -9.0830    24.8550     6.6830 n3         1 R6K      -0.723600
     40 N           -8.7500    23.7030     9.4240 n3         1 R6K      -0.717600
     41 C           -8.4560    22.6430    10.4110 c3         1 R6K       0.154100
     42 H1         -10.8260    23.2290     9.2060 h1         1 R6K       0.037200
     43 H2          -9.7700    22.4560     8.0170 h1         1 R6K       0.037200
     44 H3         -10.5730    25.4210     8.1100 h1         1 R6K       0.039700
     45 H4         -11.1110    24.2150     6.9330 h1         1 R6K       0.039700
     46 H5          -9.6230    26.8550     6.2090 h1         1 R6K       0.038700
     47 H6         -10.2860    25.6370     5.1220 h1         1 R6K       0.038700
     48 H7          -5.9390    28.5150     3.8420 ha         1 R6K       0.114000
     49 H8          -7.7570    28.1220     5.4600 ha         1 R6K       0.119000
     50 H9          -5.9960    25.7930     0.1960 ha         1 R6K       0.114000
     51 H10         -4.1610    26.1700    -1.4090 ha         1 R6K       0.114000
     52 H11         -1.2920    28.4600    -0.7700 h1         1 R6K       0.036700
     53 H12         -2.2280    27.6110    -2.0180 h1         1 R6K       0.036700
     54 H13          0.8820    27.4220    -1.4410 h1         1 R6K       0.061700
     55 H14          1.8870    25.3910    -0.5640 hc         1 R6K       0.056200
     56 H15          0.5150    24.3910    -1.0450 hc         1 R6K       0.056200
     57 H16         -1.0440    26.4590    -3.5030 h1         1 R6K       0.082700
     58 H17          2.7230    28.1640    -5.4990 ha         1 R6K       0.108000
     59 H18          3.4610    32.3070    -6.4990 h4         1 R6K       0.019100
     60 H19          5.3850    31.6840    -7.6440 h4         1 R6K       0.039100
     61 H20         -1.9500    28.3270     1.6100 ha         1 R6K       0.114000
     62 H21         -3.7700    27.9390     3.2280 ha         1 R6K       0.114000
     63 H22         -6.9990    25.3190     6.9060 h1         1 R6K       0.039700
     64 H23         -8.0550    26.1020     8.0880 h1         1 R6K       0.039700
     65 H24         -7.2590    23.1350     8.0000 h1         1 R6K       0.037200
     66 H25         -6.7220    24.3410     9.1760 h1         1 R6K       0.037200
     67 H26         -0.2430    32.5160    -4.5490 hn         1 R6K       0.497500
     68 H27         -0.7580    30.9850    -3.9190 hn         1 R6K       0.497500
     69 H28          4.5700    27.5760    -6.5610 h4         1 R6K       0.151000
     70 H29          7.0720    27.5000    -9.1950 h1         1 R6K       0.057033
     71 H30          7.9910    27.6670    -7.6670 h1         1 R6K       0.057033
     72 H31          6.5790    26.5710    -7.7480 h1         1 R6K       0.057033
     73 H32          1.8090    27.2240    -4.2210 hn         1 R6K       0.319500
     74 H33         -0.0640    24.2110    -3.5450 hc         1 R6K       0.053200
     75 H34          0.9510    25.0100    -4.7390 hc         1 R6K       0.053200
     76 H35          2.2750    23.8710    -2.7230 hc         1 R6K       0.044700
     77 H36          2.6680    25.5800    -2.9400 hc         1 R6K       0.044700
     78 H37         -6.6680    24.6220     2.0910 ha         1 R6K       0.114000
     79 H38         -8.4980    24.2470     3.7050 ha         1 R6K       0.119000
     80 H41         -7.6090    22.9310    11.0480 h1         1 R6K       0.030033
     81 H42         -9.3240    22.4670    11.0610 h1         1 R6K       0.030033
     82 H43         -8.2040    21.6990     9.9100 h1         1 R6K       0.030033
     83 C20          0.3730    28.6810    -4.0810 c          1 R6K       0.631700
     84 C28          6.9940    27.5220    -8.1010 c3         1 R6K       0.072900
@<TRIPOS>BOND
     1     1     2 1   
     2     1    40 1   
     3     1    42 1   
     4     1    43 1   
     5     2    39 1   
     6     2    44 1   
     7     2    45 1   
     8     3    38 1   
     9     3    39 1   
    10     3    46 1   
    11     3    47 1   
    12     4    30 1   
    13     4    31 1   
    14     4    84 1   
    15     5     6 ar  
    16     5     8 1   
    17     5    36 ar  
    18     6     7 ar  
    19     6    48 1   
    20     7    38 ar  
    21     7    49 1   
    22     8     9 ar  
    23     8    21 ar  
    24     9    10 ar  
    25     9    50 1   
    26    10    11 ar  
    27    10    51 1   
    28    11    12 1   
    29    11    20 ar  
    30    12    35 1   
    31    12    52 1   
    32    12    53 1   
    33    13    14 1   
    34    13    15 1   
    35    13    35 1   
    36    13    54 1   
    37    14    34 1   
    38    14    55 1   
    39    14    56 1   
    40    15    32 1   
    41    15    33 1   
    42    15    57 1   
    43    16    17 ar  
    44    16    25 ar  
    45    16    83 1   
    46    17    28 ar  
    47    17    58 1   
    48    18    27 ar  
    49    18    28 ar  
    50    18    59 1   
    51    19    29 1   
    52    19    31 2   
    53    19    60 1   
    54    20    21 ar  
    55    20    61 1   
    56    21    62 1   
    57    22    23 1   
    58    22    39 1   
    59    22    63 1   
    60    22    64 1   
    61    23    40 1   
    62    23    65 1   
    63    23    66 1   
    64    24    83 2   
    65    25    26 1   
    66    25    27 ar  
    67    26    67 1   
    68    26    68 1   
    69    28    29 1   
    70    29    30 2   
    71    30    69 1   
    72    32    73 1   
    73    32    83 1   
    74    33    34 1   
    75    33    74 1   
    76    33    75 1   
    77    34    76 1   
    78    34    77 1   
    79    36    37 ar  
    80    36    78 1   
    81    37    38 ar  
    82    37    79 1   
    83    40    41 1   
    84    41    80 1   
    85    41    81 1   
    86    41    82 1   
    87    70    84 1   
    88    71    84 1   
    89    72    84 1   
@<TRIPOS>SUBSTRUCTURE
     1 R6K         1 TEMP              0 ****  ****    0 ROOT
