@<TRIPOS>MOLECULE
R6K
   84    89     1     0     0
SMALL
abcg2


@<TRIPOS>ATOM
      1 C1          -9.5440    22.2990     7.8350 c6         1 R6K       0.163800
      2 C2         -10.0450    23.3340     6.8460 c6         1 R6K       0.164800
      3 C3          -9.3830    24.9950     5.2520 c3         1 R6K       0.215100
      4 N6           4.9680    26.6110    -8.3860 na         1 R6K       0.136800
      5 C7          -6.1650    26.6580     2.8830 cp         1 R6K      -0.034000
      6 C8          -7.2300    27.4500     3.3110 ca         1 R6K      -0.103000
      7 C9          -8.2510    26.9150     4.0830 ca         1 R6K      -0.101000
      8 C10         -5.0640    27.2330     2.0850 cp         1 R6K      -0.027000
      9 C11         -4.4070    26.4800     1.1070 ca         1 R6K      -0.104000
     10 C12         -3.3760    27.0220     0.3600 ca         1 R6K      -0.092500
     11 C13         -2.9650    28.3380     0.5600 ca         1 R6K      -0.082300
     12 C14         -1.8580    28.9250    -0.2660 c3         1 R6K       0.202900
     13 C15          0.3570    28.4800    -0.9680 c5         1 R6K       0.149300
     14 C16          1.6230    27.7920    -0.4750 c5         1 R6K      -0.079400
     15 C19          0.1440    27.8520    -2.3590 c5         1 R6K       0.080700
     16 C21          1.8490    29.9940    -4.9650 ca         1 R6K      -0.280600
     17 C22          2.5620    29.0530    -5.6890 ca         1 R6K      -0.013000
     18 C24          3.6630    30.7960    -6.8250 ca         1 R6K       0.421900
     19 C27          5.3930    28.6680    -8.2350 cc         1 R6K       0.248900
     20 C30         -3.6090    29.0880     1.5360 ca         1 R6K      -0.092500
     21 C31         -4.6430    28.5470     2.2870 ca         1 R6K      -0.104000
     22 C32         -8.1430    24.6890     7.2960 c6         1 R6K       0.164800
     23 C33         -7.6420    23.6520     8.2820 c6         1 R6K       0.163800
     24 O1          -0.1540    30.2690    -3.7120 o          1 R6K      -0.640100
     25 C25          2.0900    31.3620    -5.2500 ca         1 R6K       0.651900
     26 N4           1.4700    32.3680    -4.5930 nv         1 R6K      -1.053900
     27 N3           2.9980    31.7220    -6.1600 nb         1 R6K      -0.760000
     28 C23          3.4980    29.4240    -6.6500 ca         1 R6K      -0.109000
     29 C26          4.2530    28.4530    -7.4340 cc         1 R6K      -0.138000
     30 C29          4.0190    27.0960    -7.5690 cd         1 R6K      -0.169000
     31 N5           5.8100    27.5500    -8.7990 nd         1 R6K      -0.520800
     32 N2           1.0650    28.4180    -3.3260 ns         1 R6K      -0.495900
     33 C18          0.4640    26.3760    -2.1170 c5         1 R6K      -0.090400
     34 C17          1.5680    26.3590    -1.0390 c5         1 R6K      -0.076400
     35 O           -0.7040    28.1310    -0.1050 os         1 R6K      -0.451000
     36 C6          -6.1700    25.3080     3.2440 ca         1 R6K      -0.103000
     37 C5          -7.1960    24.7750     4.0070 ca         1 R6K      -0.101000
     38 C4          -8.2520    25.5720     4.4410 ca         1 R6K      -0.083300
     39 N1          -8.9350    24.0570     6.2580 n3         1 R6K      -0.723600
     40 N           -8.7480    22.9260     8.8710 n3         1 R6K      -0.717600
     41 C           -8.2990    21.9680     9.8540 c3         1 R6K       0.154100
     42 H1         -10.4010    21.8000     8.2940 h1         1 R6K       0.037200
     43 H2          -8.9720    21.5270     7.2900 h1         1 R6K       0.037200
     44 H3         -10.7480    24.0140     7.3590 h1         1 R6K       0.039700
     45 H4         -10.6060    22.8320     6.0540 h1         1 R6K       0.039700
     46 H5          -9.9760    25.8200     5.6840 h1         1 R6K       0.038700
     47 H6         -10.0590    24.4590     4.5760 h1         1 R6K       0.038700
     48 H7          -7.2730    28.4960     3.0350 ha         1 R6K       0.114000
     49 H8          -9.0600    27.5570     4.4110 ha         1 R6K       0.119000
     50 H9          -4.7190    25.4620     0.9110 ha         1 R6K       0.114000
     51 H10         -2.8960    26.4130    -0.3970 ha         1 R6K       0.114000
     52 H11         -1.6640    29.9600     0.0430 h1         1 R6K       0.036700
     53 H12         -2.1710    28.9650    -1.3170 h1         1 R6K       0.036700
     54 H13          0.4660    29.5720    -1.0190 h1         1 R6K       0.061700
     55 H14          2.4910    28.3270    -0.8660 hc         1 R6K       0.056200
     56 H15          1.7000    27.8260     0.6130 hc         1 R6K       0.056200
     57 H16         -0.8710    27.9960    -2.7320 h1         1 R6K       0.082700
     58 H17          2.3750    27.9990    -5.5180 ha         1 R6K       0.108000
     59 H18          4.3700    31.1680    -7.5590 h4         1 R6K       0.019100
     60 H19          5.9230    29.5920    -8.4100 h4         1 R6K       0.039100
     61 H20         -3.2970    30.1090     1.7230 ha         1 R6K       0.114000
     62 H21         -5.1070    29.1540     3.0540 ha         1 R6K       0.114000
     63 H22         -7.2840    25.1910     6.8460 h1         1 R6K       0.039700
     64 H23         -8.7240    25.4560     7.8360 h1         1 R6K       0.039700
     65 H24         -6.9380    22.9760     7.7660 h1         1 R6K       0.037200
     66 H25         -7.0810    24.1530     9.0750 h1         1 R6K       0.037200
     67 H26          1.5740    33.2900    -4.9820 hn         1 R6K       0.497500
     68 H27          0.5990    32.1680    -4.1290 hn         1 R6K       0.497500
     69 H28          3.2560    26.4590    -7.1520 h4         1 R6K       0.151000
     70 H29          5.0900    25.1810    -9.9010 h1         1 R6K       0.057033
     71 H30          6.0910    24.8520    -8.4740 h1         1 R6K       0.057033
     72 H31          4.3360    24.6410    -8.3950 h1         1 R6K       0.057033
     73 H32          1.9480    27.9540    -3.4630 hn         1 R6K       0.319500
     74 H33         -0.4360    25.8790    -1.7530 hc         1 R6K       0.053200
     75 H34          0.7530    25.8660    -3.0370 hc         1 R6K       0.053200
     76 H35          1.3390    25.6310    -0.2620 hc         1 R6K       0.044700
     77 H36          2.5320    26.0690    -1.4590 hc         1 R6K       0.044700
     78 H37         -5.3520    24.6650     2.9430 ha         1 R6K       0.114000
     79 H38         -7.1650    23.7300     4.2890 ha         1 R6K       0.119000
     80 H41         -7.7310    22.4750    10.6360 h1         1 R6K       0.030033
     81 H42         -9.1550    21.4810    10.3220 h1         1 R6K       0.030033
     82 H43         -7.6540    21.1800     9.4320 h1         1 R6K       0.030033
     83 C20          0.8380    29.5840    -3.9510 c          1 R6K       0.631700
     84 C28          5.1350    25.2440    -8.8160 c3         1 R6K       0.072900
@<TRIPOS>BOND
     1     1     2 1   
     2     1    40 1   
     3     1    42 1   
     4     1    43 1   
     5     2    39 1   
     6     2    44 1   
     7     2    45 1   
     8     3    38 1   
     9     3    39 1   
    10     3    46 1   
    11     3    47 1   
    12     4    30 1   
    13     4    31 1   
    14     4    84 1   
    15     5     6 ar  
    16     5     8 1   
    17     5    36 ar  
    18     6     7 ar  
    19     6    48 1   
    20     7    38 ar  
    21     7    49 1   
    22     8     9 ar  
    23     8    21 ar  
    24     9    10 ar  
    25     9    50 1   
    26    10    11 ar  
    27    10    51 1   
    28    11    12 1   
    29    11    20 ar  
    30    12    35 1   
    31    12    52 1   
    32    12    53 1   
    33    13    14 1   
    34    13    15 1   
    35    13    35 1   
    36    13    54 1   
    37    14    34 1   
    38    14    55 1   
    39    14    56 1   
    40    15    32 1   
    41    15    33 1   
    42    15    57 1   
    43    16    17 ar  
    44    16    25 ar  
    45    16    83 1   
    46    17    28 ar  
    47    17    58 1   
    48    18    27 ar  
    49    18    28 ar  
    50    18    59 1   
    51    19    29 1   
    52    19    31 2   
    53    19    60 1   
    54    20    21 ar  
    55    20    61 1   
    56    21    62 1   
    57    22    23 1   
    58    22    39 1   
    59    22    63 1   
    60    22    64 1   
    61    23    40 1   
    62    23    65 1   
    63    23    66 1   
    64    24    83 2   
    65    25    26 1   
    66    25    27 ar  
    67    26    67 1   
    68    26    68 1   
    69    28    29 1   
    70    29    30 2   
    71    30    69 1   
    72    32    73 1   
    73    32    83 1   
    74    33    34 1   
    75    33    74 1   
    76    33    75 1   
    77    34    76 1   
    78    34    77 1   
    79    36    37 ar  
    80    36    78 1   
    81    37    38 ar  
    82    37    79 1   
    83    40    41 1   
    84    41    80 1   
    85    41    81 1   
    86    41    82 1   
    87    70    84 1   
    88    71    84 1   
    89    72    84 1   
@<TRIPOS>SUBSTRUCTURE
     1 R6K         1 TEMP              0 ****  ****    0 ROOT
