@<TRIPOS>MOLECULE
R6N
   75    79     1     0     0
SMALL
bcc


@<TRIPOS>ATOM
      1 C1          25.8490    13.5020    21.9680 c3         1 R6N      -0.092100
      2 C2          26.3620    13.6500    20.5410 c3         1 R6N      -0.072400
      3 C3          25.3200    14.1700    19.5560 c3         1 R6N      -0.100400
      4 N6          26.4560    24.6170     9.6780 n3         1 R6N      -0.715600
      5 C7          27.3540    17.7330    14.5440 cc         1 R6N      -0.106100
      6 C8          26.0800    18.1090    14.2210 cd         1 R6N      -0.044400
      7 C9          25.2710    17.7010    15.3390 ca         1 R6N      -0.374400
      8 C10         23.9280    17.6740    15.7010 ca         1 R6N       0.529200
      9 C11         25.6710    18.7860    12.9930 ca         1 R6N      -0.001800
     10 C12         24.5450    19.6110    12.9510 ca         1 R6N      -0.126000
     11 C13         24.1720    20.2530    11.7800 ca         1 R6N      -0.116000
     12 C14         24.9120    20.1100    10.6090 ca         1 R6N      -0.125300
     13 C15         26.0350    19.2860    10.6510 ca         1 R6N      -0.116000
     14 C16         26.4040    18.6310    11.8120 ca         1 R6N      -0.126000
     15 C19         25.0120    24.5430     9.7470 c6         1 R6N       0.162800
     16 C20         26.9650    23.6380     8.7390 c6         1 R6N       0.162800
     17 C21         26.5220    22.2380     9.1240 c6         1 R6N       0.172300
     18 C22         26.9070    25.9520     9.3510 c3         1 R6N       0.153100
     19 C24         28.9620    17.2580    17.6970 c6         1 R6N      -0.090400
     20 C27         29.8040    14.4950    17.1160 c6         1 R6N      -0.091900
     21 C4          24.8730    15.5970    19.8650 c3         1 R6N       0.246800
     22 N1          24.0120    16.1680    18.8550 nu         1 R6N      -0.878900
     23 C5          24.4590    16.6450    17.6760 ca         1 R6N       0.924900
     24 N2          25.7630    16.5740    17.4330 nb         1 R6N      -0.804000
     25 C6          26.1340    17.0970    16.2760 ca         1 R6N       0.505800
     26 N3          27.3940    17.1230    15.7780 na         1 R6N      -0.163100
     27 N4          23.5230    17.1610    16.8470 nb         1 R6N      -0.790000
     28 C17         24.5360    20.8420     9.3410 c3         1 R6N       0.225100
     29 N5          25.0760    22.1810     9.1930 n3         1 R6N      -0.734600
     30 C18         24.5670    23.1460    10.1440 c6         1 R6N       0.172300
     31 C23         28.5960    16.5670    16.3850 c6         1 R6N       0.071000
     32 C25         30.2640    16.6800    18.2420 c6         1 R6N      -0.091900
     33 C26         30.1640    15.1700    18.4300 c6         1 R6N       0.145100
     34 C28         28.4960    15.0530    16.5670 c6         1 R6N      -0.090400
     35 O1          31.3770    14.6080    18.8940 oh         1 R6N      -0.596800
     36 H1          26.6160    13.0810    22.6200 hc         1 R6N       0.031367
     37 H2          25.5480    14.4580    22.3980 hc         1 R6N       0.031367
     38 H3          24.9830    12.8380    22.0060 hc         1 R6N       0.031367
     39 H4          26.7270    12.6810    20.1890 hc         1 R6N       0.039200
     40 H5          27.2290    14.3190    20.5310 hc         1 R6N       0.039200
     41 H6          24.4490    13.5050    19.5500 hc         1 R6N       0.050200
     42 H7          25.7400    14.1480    18.5480 hc         1 R6N       0.050200
     43 H9          28.2680    17.8690    13.9860 h4         1 R6N       0.166000
     44 H10         23.1520    18.0640    15.0500 h4         1 R6N       0.023100
     45 H11         23.9580    19.7750    13.8460 ha         1 R6N       0.129500
     46 H12         23.2850    20.8760    11.7840 ha         1 R6N       0.127500
     47 H13         26.6230    19.1410     9.7510 ha         1 R6N       0.127500
     48 H14         27.2650    17.9730    11.7960 ha         1 R6N       0.129500
     49 H16         24.6530    25.2600    10.4900 h1         1 R6N       0.035700
     50 H17         28.0570    23.6830     8.7350 h1         1 R6N       0.035700
     51 H18         26.6290    23.8530     7.7080 h1         1 R6N       0.035700
     52 H19         26.9980    21.9610    10.0780 h1         1 R6N       0.039200
     53 H20         26.8740    21.5300     8.3700 h1         1 R6N       0.039200
     54 H21         26.5270    26.6630    10.0860 h1         1 R6N       0.030033
     55 H22         27.9970    25.9940     9.3730 h1         1 R6N       0.030033
     56 H23         26.5760    26.2860     8.3550 h1         1 R6N       0.030033
     57 H24         29.0640    18.3320    17.5320 hc         1 R6N       0.062950
     58 H25         28.1590    17.1120    18.4230 hc         1 R6N       0.062950
     59 H26         29.7110    13.4160    17.2610 hc         1 R6N       0.051200
     60 H27         30.6100    14.6590    16.3930 hc         1 R6N       0.051200
     61 H28         25.7540    16.2330    19.9830 h1         1 R6N       0.049200
     62 H29         24.3240    15.6320    20.8050 h1         1 R6N       0.049200
     63 H30         23.0220    16.2060    19.0150 hn         1 R6N       0.452800
     64 H31         23.4460    20.9120     9.2710 h1         1 R6N       0.055700
     65 H32         24.8690    20.2550     8.4800 h1         1 R6N       0.055700
     66 H34         23.4740    23.1070    10.1460 h1         1 R6N       0.039200
     67 H35         24.9010    22.9440    11.1740 h1         1 R6N       0.039200
     68 H36         29.3950    16.7640    15.6630 h1         1 R6N       0.055700
     69 H37         31.0890    16.8990    17.5560 hc         1 R6N       0.051200
     70 H38         30.5060    17.1650    19.1930 hc         1 R6N       0.051200
     71 H39         29.3530    14.9710    19.1510 h1         1 R6N       0.032700
     72 H40         27.6800    14.8230    17.2550 hc         1 R6N       0.062950
     73 H41         28.2560    14.5820    15.6110 hc         1 R6N       0.062950
     74 H42         31.5880    15.0110    19.7390 ho         1 R6N       0.403000
     75 H15         24.5430    24.8110     8.7830 h1         1 R6N       0.035700
@<TRIPOS>BOND
     1     1     2 1   
     2     1    36 1   
     3     1    37 1   
     4     1    38 1   
     5     2     3 1   
     6     2    39 1   
     7     2    40 1   
     8     3    21 1   
     9     3    41 1   
    10     3    42 1   
    11     4    15 1   
    12     4    16 1   
    13     4    18 1   
    14     5     6 2   
    15     5    26 1   
    16     5    43 1   
    17     6     7 1   
    18     6     9 1   
    19     7     8 ar  
    20     7    25 ar  
    21     8    27 ar  
    22     8    44 1   
    23     9    10 ar  
    24     9    14 ar  
    25    10    11 ar  
    26    10    45 1   
    27    11    12 ar  
    28    11    46 1   
    29    12    13 ar  
    30    12    28 1   
    31    13    14 ar  
    32    13    47 1   
    33    14    48 1   
    34    15    30 1   
    35    15    49 1   
    36    15    75 1   
    37    16    17 1   
    38    16    50 1   
    39    16    51 1   
    40    17    29 1   
    41    17    52 1   
    42    17    53 1   
    43    18    54 1   
    44    18    55 1   
    45    18    56 1   
    46    19    31 1   
    47    19    32 1   
    48    19    57 1   
    49    19    58 1   
    50    20    33 1   
    51    20    34 1   
    52    20    59 1   
    53    20    60 1   
    54    21    22 1   
    55    21    61 1   
    56    21    62 1   
    57    22    23 1   
    58    22    63 1   
    59    23    24 ar  
    60    23    27 ar  
    61    24    25 ar  
    62    25    26 1   
    63    26    31 1   
    64    28    29 1   
    65    28    64 1   
    66    28    65 1   
    67    29    30 1   
    68    30    66 1   
    69    30    67 1   
    70    31    34 1   
    71    31    68 1   
    72    32    33 1   
    73    32    69 1   
    74    32    70 1   
    75    33    35 1   
    76    33    71 1   
    77    34    72 1   
    78    34    73 1   
    79    35    74 1   
@<TRIPOS>SUBSTRUCTURE
     1 R6N         1 TEMP              0 ****  ****    0 ROOT
