@<TRIPOS>MOLECULE
R6N
   75    79     1     0     0
SMALL
No Charge or Current Charge


@<TRIPOS>ATOM
      1 C1          25.4530    13.1390    21.8840 c3         1 R6N      -0.092100
      2 C2          26.0700    13.3810    20.4910 c3         1 R6N      -0.072400
      3 C3          25.1550    14.1600    19.5170 c3         1 R6N      -0.100400
      4 N6          26.4320    24.6300     9.5470 n3         1 R6N      -0.715600
      5 C7          27.5820    17.8070    14.4630 cc         1 R6N      -0.156100
      6 C8          26.2730    18.2310    14.2860 cd         1 R6N      -0.044400
      7 C9          25.4820    17.8260    15.4400 ca         1 R6N      -0.243800
      8 C10         24.1070    17.8730    15.7380 ca         1 R6N       0.200900
      9 C11         25.7620    18.8710    13.0490 ca         1 R6N      -0.001800
     10 C12         24.5980    19.6690    13.0430 ca         1 R6N      -0.108000
     11 C13         24.1420    20.2720    11.8580 ca         1 R6N      -0.098000
     12 C14         24.8490    20.1050    10.6530 ca         1 R6N      -0.125300
     13 C15         26.0190    19.3250    10.6530 ca         1 R6N      -0.098000
     14 C16         26.4750    18.7250    11.8390 ca         1 R6N      -0.108000
     15 C19         24.9520    24.5720     9.7550 c6         1 R6N       0.162800
     16 C20         26.8480    23.6110     8.5350 c6         1 R6N       0.162800
     17 C21         26.3540    22.1720     8.8980 c6         1 R6N       0.172300
     18 C22         26.9120    25.9900     9.2210 c3         1 R6N       0.153100
     19 C24         29.1750    17.3290    17.7220 c6         1 R6N      -0.090400
     20 C27         29.9340    14.4780    17.2160 c6         1 R6N      -0.091900
     21 C4          24.8410    15.6060    19.9670 c3         1 R6N       0.246800
     22 N1          24.0920    16.3390    18.9300 nu         1 R6N      -0.934100
     23 C5          24.5770    16.8360    17.7290 ca         1 R6N       0.398900
     24 N2          25.9010    16.7310    17.4990 nb         1 R6N      -0.278000
     25 C6          26.3450    17.2250    16.3290 ca         1 R6N       0.177500
     26 N3          27.6100    17.2250    15.7430 na         1 R6N      -0.192400
     27 N4          23.6550    17.3750    16.9090 nb         1 R6N      -0.264000
     28 C17         24.3470    20.7540     9.3610 c3         1 R6N       0.225100
     29 N5          24.8730    22.1190     9.1030 n3         1 R6N      -0.734600
     30 C18         24.4560    23.1350    10.1190 c6         1 R6N       0.172300
     31 C23         28.8060    16.6220    16.3880 c6         1 R6N       0.100300
     32 C25         30.4490    16.7060    18.3490 c6         1 R6N      -0.091900
     33 C26         30.2870    15.1770    18.5540 c6         1 R6N       0.168300
     34 C28         28.6570    15.0870    16.5820 c6         1 R6N      -0.090400
     35 O1          31.4940    14.6240    19.0830 oh         1 R6N      -0.659000
     36 H1          26.1240    12.5240    22.4950 hc         1 R6N       0.031367
     37 H2          25.2880    14.0850    22.4130 hc         1 R6N       0.031367
     38 H3          24.4930    12.6160    21.7990 hc         1 R6N       0.031367
     39 H4          26.3110    12.4090    20.0430 hc         1 R6N       0.039200
     40 H5          27.0200    13.9170    20.6040 hc         1 R6N       0.039200
     41 H6          24.2150    13.6110    19.3820 hc         1 R6N       0.050200
     42 H7          25.6460    14.1820    18.5380 hc         1 R6N       0.050200
     43 H9          28.4570    17.8860    13.8270 h4         1 R6N       0.216000
     44 H10         23.3560    18.2620    15.0570 h4         1 R6N       0.023100
     45 H11         24.0630    19.8770    13.9610 ha         1 R6N       0.111500
     46 H12         23.2430    20.8840    11.8810 ha         1 R6N       0.109500
     47 H13         26.5790    19.1820     9.7310 ha         1 R6N       0.109500
     48 H14         27.3790    18.1230    11.8020 ha         1 R6N       0.111500
     49 H16         24.6540    25.2600    10.5600 h1         1 R6N       0.035700
     50 H17         27.9440    23.5920     8.4430 h1         1 R6N       0.035700
     51 H18         26.4480    23.8770     7.5450 h1         1 R6N       0.035700
     52 H19         26.8760    21.8510     9.8110 h1         1 R6N       0.039200
     53 H20         26.6540    21.4830     8.0950 h1         1 R6N       0.039200
     54 H21         26.6310    26.6990    10.0110 h1         1 R6N       0.030033
     55 H22         28.0060    26.0020     9.1270 h1         1 R6N       0.030033
     56 H23         26.4810    26.3420     8.2740 h1         1 R6N       0.030033
     57 H24         29.3360    18.4000    17.5430 hc         1 R6N       0.062950
     58 H25         28.3500    17.2540    18.4420 hc         1 R6N       0.062950
     59 H26         29.7840    13.4030    17.3850 hc         1 R6N       0.051200
     60 H27         30.7740    14.5710    16.5130 hc         1 R6N       0.051200
     61 H28         25.7770    16.1330    20.2010 h1         1 R6N       0.049200
     62 H29         24.2460    15.5680    20.8890 h1         1 R6N       0.049200
     63 H30         23.0830    16.4360    19.0590 hn         1 R6N       0.508000
     64 H31         23.2480    20.7840     9.3930 h1         1 R6N       0.055700
     65 H32         24.6060    20.0960     8.5200 h1         1 R6N       0.055700
     66 H34         23.3610    23.1530    10.2140 h1         1 R6N       0.039200
     67 H35         24.8620    22.8730    11.1080 h1         1 R6N       0.039200
     68 H36         29.6490    16.7780    15.6990 h1         1 R6N       0.055700
     69 H37         31.3130    16.9060    17.6990 hc         1 R6N       0.051200
     70 H38         30.6610    17.1940    19.3100 hc         1 R6N       0.051200
     71 H39         29.4600    15.0060    19.2610 h1         1 R6N       0.032700
     72 H40         27.7960    14.8590    17.2240 hc         1 R6N       0.062950
     73 H41         28.4580    14.6080    15.6140 hc         1 R6N       0.062950
     74 H42         31.6400    15.0500    19.9560 ho         1 R6N       0.442000
     75 H15         24.4300    24.9000     8.8440 h1         1 R6N       0.035700
@<TRIPOS>BOND
     1     1     2 1   
     2     1    36 1   
     3     1    37 1   
     4     1    38 1   
     5     2     3 1   
     6     2    39 1   
     7     2    40 1   
     8     3    21 1   
     9     3    41 1   
    10     3    42 1   
    11     4    15 1   
    12     4    16 1   
    13     4    18 1   
    14     5     6 2   
    15     5    26 1   
    16     5    43 1   
    17     6     7 1   
    18     6     9 1   
    19     7     8 ar  
    20     7    25 ar  
    21     8    27 ar  
    22     8    44 1   
    23     9    10 ar  
    24     9    14 ar  
    25    10    11 ar  
    26    10    45 1   
    27    11    12 ar  
    28    11    46 1   
    29    12    13 ar  
    30    12    28 1   
    31    13    14 ar  
    32    13    47 1   
    33    14    48 1   
    34    15    30 1   
    35    15    49 1   
    36    15    75 1   
    37    16    17 1   
    38    16    50 1   
    39    16    51 1   
    40    17    29 1   
    41    17    52 1   
    42    17    53 1   
    43    18    54 1   
    44    18    55 1   
    45    18    56 1   
    46    19    31 1   
    47    19    32 1   
    48    19    57 1   
    49    19    58 1   
    50    20    33 1   
    51    20    34 1   
    52    20    59 1   
    53    20    60 1   
    54    21    22 1   
    55    21    61 1   
    56    21    62 1   
    57    22    23 1   
    58    22    63 1   
    59    23    24 ar  
    60    23    27 ar  
    61    24    25 ar  
    62    25    26 1   
    63    26    31 1   
    64    28    29 1   
    65    28    64 1   
    66    28    65 1   
    67    29    30 1   
    68    30    66 1   
    69    30    67 1   
    70    31    34 1   
    71    31    68 1   
    72    32    33 1   
    73    32    69 1   
    74    32    70 1   
    75    33    35 1   
    76    33    71 1   
    77    34    72 1   
    78    34    73 1   
    79    35    74 1   
@<TRIPOS>SUBSTRUCTURE
     1 R6N         1 TEMP              0 ****  ****    0 ROOT
