@<TRIPOS>MOLECULE
R6P
   68    73     1     0     0
SMALL
abcg2


@<TRIPOS>ATOM
      1 C13         47.5370    -2.2470   -27.9850 cc         1 R6P      -0.118000
      2 C15         46.4740    -3.8160   -29.7100 ca         1 R6P       0.318500
      3 C17         45.2830    -4.8210   -31.4030 ca         1 R6P       0.415900
      4 C20         45.2250    -2.4850   -33.4750 ca         1 R6P      -0.157000
      5 C21         45.0460    -1.5420   -34.4800 ca         1 R6P      -0.077000
      6 C22         44.2790    -1.7880   -35.6110 ca         1 R6P      -0.107300
      7 C24         42.6500    -0.2530   -36.7770 c6         1 R6P      -0.070400
      8 C28         44.5780    -1.2050   -38.0550 c6         1 R6P      -0.070400
      9 C03         47.4980     0.8220   -26.6520 c3         1 R6P      -0.034300
     10 C04         48.6060    -0.1760   -27.0270 c3         1 R6P       0.112300
     11 C05         49.1640    -0.9490   -25.8420 c5         1 R6P      -0.088700
     12 C06         49.7540    -0.0340   -24.7660 c5         1 R6P      -0.076900
     13 C07         50.6050    -0.9750   -23.9100 c5         1 R6P      -0.078900
     14 C08         51.0630    -2.1050   -24.8590 c5         1 R6P      -0.078900
     15 C09         50.3470    -1.8560   -26.1960 c5         1 R6P      -0.076900
     16 C12         47.5830    -1.5360   -30.0660 cd         1 R6P       0.296900
     17 C14         47.1590    -2.6160   -29.2620 cd         1 R6P      -0.284500
     18 C19         44.6190    -3.7370   -33.5800 ca         1 R6P       0.325000
     19 C23         44.0990    -0.7390   -36.6760 c6         1 R6P      -0.009400
     20 C25         42.5080     0.7970   -37.8700 c6         1 R6P       0.158800
     21 C27         44.3610    -0.1150   -39.0950 c6         1 R6P       0.158800
     22 C29         43.6790    -3.0440   -35.7060 ca         1 R6P      -0.077000
     23 C30         43.8440    -3.9970   -34.7180 ca         1 R6P      -0.157000
     24 C32         45.6490    -6.0270   -29.5750 ca         1 R6P       0.178500
     25 C33         46.3640    -4.9810   -28.9510 ca         1 R6P      -0.236800
     26 C34         46.7910    -5.4770   -27.6760 cc         1 R6P      -0.197200
     27 C35         46.3260    -6.7510   -27.5850 cd         1 R6P      -0.173100
     28 N01         45.4710    -0.3520   -25.5150 n1         1 R6P      -0.451000
     29 N10         48.1370    -1.0510   -28.0890 na         1 R6P       0.123800
     30 N11         48.1690    -0.6060   -29.3480 nc         1 R6P      -0.541800
     31 N16         45.9370    -3.7620   -30.9290 nb         1 R6P      -0.264000
     32 N18         44.7190    -4.7630   -32.6470 nu         1 R6P      -0.931900
     33 N26         42.9580     0.2570   -39.1400 n7         1 R6P      -0.862400
     34 N31         45.0990    -5.9820   -30.7760 nb         1 R6P      -0.280000
     35 N36         45.6350    -7.0800   -28.7300 na         1 R6P      -0.331400
     36 H1          47.4030    -2.7350   -27.0350 h4         1 R6P       0.163000
     37 H3          45.5300    -0.5780   -34.3690 ha         1 R6P       0.111000
     38 H4          42.3270     0.1660   -35.8200 hc         1 R6P       0.048950
     39 H5          41.9890    -1.0960   -37.0000 hc         1 R6P       0.048950
     40 H6          44.0270    -2.1020   -38.3560 hc         1 R6P       0.048950
     41 H7          45.6350    -1.4750   -38.0150 hc         1 R6P       0.048950
     42 H8          47.8950     1.5840   -25.9800 hc         1 R6P       0.088700
     43 H9          47.1450     1.3400   -27.5460 hc         1 R6P       0.088700
     44 H10         49.4140     0.4120   -27.4660 h1         1 R6P       0.090700
     45 H11         48.3750    -1.5540   -25.3770 hc         1 R6P       0.063700
     46 H12         50.3840     0.7250   -25.2420 hc         1 R6P       0.049200
     47 H13         48.9980     0.4900   -24.1800 hc         1 R6P       0.049200
     48 H14         50.0020    -1.3830   -23.0960 hc         1 R6P       0.045950
     49 H15         51.4430    -0.4520   -23.4490 hc         1 R6P       0.045950
     50 H16         50.7920    -3.0800   -24.4520 hc         1 R6P       0.045950
     51 H17         52.1450    -2.1150   -24.9900 hc         1 R6P       0.045950
     52 H18         50.0470    -2.7830   -26.6850 hc         1 R6P       0.049200
     53 H19         51.0070    -1.3270   -26.8900 hc         1 R6P       0.049200
     54 H20         47.4970    -1.4280   -31.1360 h4         1 R6P       0.052100
     55 H21         44.7140     0.1250   -36.3930 hc         1 R6P       0.043700
     56 H22         43.0720     1.6960   -37.5690 h1         1 R6P       0.027700
     57 H23         41.4610     1.0970   -37.9640 h1         1 R6P       0.027700
     58 H24         44.6630    -0.4750   -40.0810 h1         1 R6P       0.027700
     59 H25         45.0160     0.7380   -38.8520 h1         1 R6P       0.027700
     60 H26         43.0650    -3.2910   -36.5640 ha         1 R6P       0.111000
     61 H27         43.3610    -4.9620   -34.8260 ha         1 R6P       0.127500
     62 H28         47.3750    -4.9750   -26.9220 ha         1 R6P       0.201000
     63 H29         46.4320    -7.4690   -26.7880 h4         1 R6P       0.216000
     64 H30         44.2380    -5.6140   -32.8960 hn         1 R6P       0.507000
     65 H31         42.8140     0.9430   -39.8700 hn         1 R6P       0.408000
     66 H33         45.1960    -7.9680   -28.9140 hn         1 R6P       0.361000
     67 C02         46.3640     0.1770   -26.0130 c1         1 R6P       0.293900
     68 H2          45.8300    -2.2430   -32.6180 ha         1 R6P       0.127500
@<TRIPOS>BOND
     1     1    17 2   
     2     1    29 1   
     3     1    36 1   
     4     2    17 1   
     5     2    25 ar  
     6     2    31 ar  
     7     3    31 ar  
     8     3    32 1   
     9     3    34 ar  
    10     4     5 ar  
    11     4    18 ar  
    12     4    68 1   
    13     5     6 ar  
    14     5    37 1   
    15     6    19 1   
    16     6    22 ar  
    17     7    19 1   
    18     7    20 1   
    19     7    38 1   
    20     7    39 1   
    21     8    19 1   
    22     8    21 1   
    23     8    40 1   
    24     8    41 1   
    25     9    10 1   
    26     9    42 1   
    27     9    43 1   
    28     9    67 1   
    29    10    11 1   
    30    10    29 1   
    31    10    44 1   
    32    11    12 1   
    33    11    15 1   
    34    11    45 1   
    35    12    13 1   
    36    12    46 1   
    37    12    47 1   
    38    13    14 1   
    39    13    48 1   
    40    13    49 1   
    41    14    15 1   
    42    14    50 1   
    43    14    51 1   
    44    15    52 1   
    45    15    53 1   
    46    16    17 1   
    47    16    30 2   
    48    16    54 1   
    49    18    23 ar  
    50    18    32 1   
    51    19    55 1   
    52    20    33 1   
    53    20    56 1   
    54    20    57 1   
    55    21    33 1   
    56    21    58 1   
    57    21    59 1   
    58    22    23 ar  
    59    22    60 1   
    60    23    61 1   
    61    24    25 ar  
    62    24    34 ar  
    63    24    35 1   
    64    25    26 1   
    65    26    27 2   
    66    26    62 1   
    67    27    35 1   
    68    27    63 1   
    69    28    67 3   
    70    29    30 1   
    71    32    64 1   
    72    33    65 1   
    73    35    66 1   
@<TRIPOS>SUBSTRUCTURE
     1 R6P         1 TEMP              0 ****  ****    0 ROOT
