@<TRIPOS>MOLECULE
R6P
   68    73     1     0     0
SMALL
No Charge or Current Charge


@<TRIPOS>ATOM
      1 C13         47.2200    -2.2400   -27.7840 cc         1 R6P      -0.118000
      2 C15         46.2930    -3.7850   -29.6140 ca         1 R6P       0.318500
      3 C17         45.2190    -4.8240   -31.3680 ca         1 R6P       0.415900
      4 C20         45.6000    -2.8330   -33.8130 ca         1 R6P      -0.157000
      5 C21         45.5160    -1.8880   -34.8500 ca         1 R6P      -0.077000
      6 C22         44.4180    -1.8930   -35.7320 ca         1 R6P      -0.107300
      7 C24         43.0850     0.0570   -36.7310 c6         1 R6P      -0.070400
      8 C28         44.3520    -1.5160   -38.2680 c6         1 R6P      -0.070400
      9 C03         47.0030     0.5860   -25.9380 c3         1 R6P      -0.034300
     10 C04         48.1630    -0.1010   -26.7100 c3         1 R6P       0.112300
     11 C05         49.1860    -0.8590   -25.8040 c5         1 R6P      -0.088700
     12 C06         49.9240     0.0220   -24.7600 c5         1 R6P      -0.076900
     13 C07         51.0090    -0.9490   -24.2100 c5         1 R6P      -0.078900
     14 C08         51.3030    -1.9330   -25.3870 c5         1 R6P      -0.078900
     15 C09         50.4230    -1.4180   -26.5580 c5         1 R6P      -0.076900
     16 C12         47.0520    -1.3450   -29.8150 cd         1 R6P       0.296900
     17 C14         46.8460    -2.5290   -29.0700 cd         1 R6P      -0.284500
     18 C19         44.5870    -3.7930   -33.6360 ca         1 R6P       0.325000
     19 C23         44.3350    -0.8550   -36.8630 c6         1 R6P      -0.009400
     20 C25         43.0160     1.0810   -37.8910 c6         1 R6P       0.158800
     21 C27         44.2490    -0.4490   -39.3870 c6         1 R6P       0.158800
     22 C29         43.4120    -2.8660   -35.5650 ca         1 R6P      -0.077000
     23 C30         43.5020    -3.8100   -34.5270 ca         1 R6P      -0.157000
     24 C32         45.6550    -6.1100   -29.5400 ca         1 R6P       0.178500
     25 C33         46.2470    -5.0250   -28.9350 ca         1 R6P      -0.236800
     26 C34         46.7510    -5.4630   -27.6600 cc         1 R6P      -0.197200
     27 C35         46.4210    -6.8010   -27.5320 cd         1 R6P      -0.173100
     28 N01         45.4590    -1.0940   -24.6250 n1         1 R6P      -0.451000
     29 N10         47.6490    -0.9160   -27.8400 na         1 R6P       0.123800
     30 N11         47.5410    -0.3560   -29.0940 nc         1 R6P      -0.541800
     31 N16         45.7620    -3.7040   -30.8520 nb         1 R6P      -0.264000
     32 N18         44.6370    -4.7600   -32.6260 nu         1 R6P      -0.931900
     33 N26         43.0500     0.4040   -39.2110 n7         1 R6P      -0.862400
     34 N31         45.1240    -6.0240   -30.7700 nb         1 R6P      -0.280000
     35 N36         45.7290    -7.2070   -28.6970 na         1 R6P      -0.331400
     36 H1          47.2030    -2.8060   -26.8640 h4         1 R6P       0.163000
     37 H3          46.3110    -1.1540   -34.9680 ha         1 R6P       0.111000
     38 H4          43.1090     0.5890   -35.7710 hc         1 R6P       0.048950
     39 H5          42.1680    -0.5490   -36.7300 hc         1 R6P       0.048950
     40 H6          43.5190    -2.2240   -38.3680 hc         1 R6P       0.048950
     41 H7          45.2740    -2.0970   -38.3970 hc         1 R6P       0.048950
     42 H8          47.4080     1.3160   -25.2290 hc         1 R6P       0.088700
     43 H9          46.3860     1.1530   -26.6440 hc         1 R6P       0.088700
     44 H10         48.7340     0.7140   -27.1740 h1         1 R6P       0.090700
     45 H11         48.6450    -1.6730   -25.3040 hc         1 R6P       0.063700
     46 H12         50.3800     0.9050   -25.2250 hc         1 R6P       0.049200
     47 H13         49.2630     0.3820   -23.9630 hc         1 R6P       0.049200
     48 H14         50.6410    -1.4960   -23.3330 hc         1 R6P       0.045950
     49 H15         51.9070    -0.4080   -23.8900 hc         1 R6P       0.045950
     50 H16         51.0280    -2.9580   -25.1110 hc         1 R6P       0.045950
     51 H17         52.3660    -1.9520   -25.6560 hc         1 R6P       0.045950
     52 H18         50.1670    -2.2210   -27.2590 hc         1 R6P       0.049200
     53 H19         50.9360    -0.6380   -27.1340 hc         1 R6P       0.049200
     54 H20         46.8610    -1.1790   -30.8690 h4         1 R6P       0.052100
     55 H21         45.2190    -0.2050   -36.7980 hc         1 R6P       0.043700
     56 H22         43.8660     1.7760   -37.8160 h1         1 R6P       0.027700
     57 H23         42.0930     1.6730   -37.8060 h1         1 R6P       0.027700
     58 H24         44.2050    -0.9470   -40.3670 h1         1 R6P       0.027700
     59 H25         45.1510     0.1820   -39.3750 h1         1 R6P       0.027700
     60 H26         42.5570    -2.8940   -36.2370 ha         1 R6P       0.111000
     61 H27         42.7160    -4.5510   -34.4120 ha         1 R6P       0.127500
     62 H28         47.3270    -4.9050   -26.9280 ha         1 R6P       0.201000
     63 H29         46.6370    -7.4880   -26.7150 h4         1 R6P       0.216000
     64 H30         44.0570    -5.5760   -32.8150 hn         1 R6P       0.507000
     65 H31         43.0400     1.1190   -39.9500 hn         1 R6P       0.408000
     66 H33         45.3640    -8.1330   -28.8970 hn         1 R6P       0.361000
     67 C02         46.1300    -0.3400   -25.2060 c1         1 R6P       0.293900
     68 H2          46.4700    -2.8220   -33.1640 ha         1 R6P       0.127500
@<TRIPOS>BOND
     1     1    17 2   
     2     1    29 1   
     3     1    36 1   
     4     2    17 1   
     5     2    25 ar  
     6     2    31 ar  
     7     3    31 ar  
     8     3    32 1   
     9     3    34 ar  
    10     4     5 ar  
    11     4    18 ar  
    12     4    68 1   
    13     5     6 ar  
    14     5    37 1   
    15     6    19 1   
    16     6    22 ar  
    17     7    19 1   
    18     7    20 1   
    19     7    38 1   
    20     7    39 1   
    21     8    19 1   
    22     8    21 1   
    23     8    40 1   
    24     8    41 1   
    25     9    10 1   
    26     9    42 1   
    27     9    43 1   
    28     9    67 1   
    29    10    11 1   
    30    10    29 1   
    31    10    44 1   
    32    11    12 1   
    33    11    15 1   
    34    11    45 1   
    35    12    13 1   
    36    12    46 1   
    37    12    47 1   
    38    13    14 1   
    39    13    48 1   
    40    13    49 1   
    41    14    15 1   
    42    14    50 1   
    43    14    51 1   
    44    15    52 1   
    45    15    53 1   
    46    16    17 1   
    47    16    30 2   
    48    16    54 1   
    49    18    23 ar  
    50    18    32 1   
    51    19    55 1   
    52    20    33 1   
    53    20    56 1   
    54    20    57 1   
    55    21    33 1   
    56    21    58 1   
    57    21    59 1   
    58    22    23 ar  
    59    22    60 1   
    60    23    61 1   
    61    24    25 ar  
    62    24    34 ar  
    63    24    35 1   
    64    25    26 1   
    65    26    27 2   
    66    26    62 1   
    67    27    35 1   
    68    27    63 1   
    69    28    67 3   
    70    29    30 1   
    71    32    64 1   
    72    33    65 1   
    73    35    66 1   
@<TRIPOS>SUBSTRUCTURE
     1 R6P         1 TEMP              0 ****  ****    0 ROOT
