@<TRIPOS>MOLECULE
R6Q
   49    52     1     0     0
SMALL
No Charge or Current Charge


@<TRIPOS>ATOM
      1 C12          3.6820     1.7850   -22.5570 c6         1 R6Q       0.168800
      2 C01          0.5140     4.0410   -25.2170 ca         1 R6Q      -0.058000
      3 C02         -0.5100     4.1130   -26.1780 ca         1 R6Q      -0.140000
      4 C03         -1.6770     3.3470   -26.0300 ca         1 R6Q      -0.067000
      5 C04         -1.8180     2.5040   -24.9160 ca         1 R6Q      -0.157000
      6 C05         -0.7970     2.4430   -23.9540 ca         1 R6Q      -0.006000
      7 C06          0.3700     3.2100   -24.0810 ca         1 R6Q      -0.160300
      8 C08         -0.1120     1.6280   -21.7130 c          1 R6Q       0.715100
      9 C10          1.4880     3.0210   -23.0280 c6         1 R6Q       0.262300
     10 C11          2.5090     1.9760   -23.5460 c6         1 R6Q      -0.079400
     11 C14          3.4230     4.0820   -21.7260 c6         1 R6Q       0.168800
     12 C15          2.2550     4.3330   -22.7080 c6         1 R6Q      -0.079400
     13 C17          6.4970     4.0940   -21.2670 c3         1 R6Q      -0.039100
     14 C18          7.7870     3.7520   -20.5340 ca         1 R6Q      -0.049300
     15 C19          8.9560     3.4450   -21.2540 ca         1 R6Q      -0.116000
     16 C20         10.1460     3.1240   -20.5780 ca         1 R6Q      -0.058000
     17 C21         10.1830     3.0980   -19.1670 ca         1 R6Q      -0.199300
     18 C22          9.0100     3.4150   -18.4480 ca         1 R6Q      -0.058000
     19 C23          7.8220     3.7350   -19.1280 ca         1 R6Q      -0.116000
     20 C24         11.4830     2.7590   -18.4270 c3         1 R6Q       0.356300
     21 F25         12.2160     3.8690   -18.1880 f          1 R6Q      -0.114667
     22 F26         11.2550     2.1700   -17.2300 f          1 R6Q      -0.114667
     23 F27         12.2680     1.9100   -19.1300 f          1 R6Q      -0.114667
     24 N07         -0.9170     1.6220   -22.8290 ns         1 R6Q      -0.174000
     25 N13          4.3780     3.0700   -22.2690 n3         1 R6Q      -0.725600
     26 O09          0.9120     2.5430   -21.7820 os         1 R6Q      -0.443100
     27 O28         -0.3160     0.9300   -20.7300 o          1 R6Q      -0.532000
     28 H121         3.3020     1.3390   -21.6250 h1         1 R6Q       0.042200
     29 H122         4.3870     1.0610   -22.9920 h1         1 R6Q       0.042200
     30 H011         1.4180     4.6220   -25.3800 ha         1 R6Q       0.119000
     31 H021        -0.3920     4.7570   -27.0470 ha         1 R6Q       0.120000
     32 H031        -2.4650     3.4010   -26.7780 ha         1 R6Q       0.118000
     33 H041        -2.7200     1.9060   -24.8000 ha         1 R6Q       0.121000
     34 H112         2.0110     1.0130   -23.7210 hc         1 R6Q       0.062200
     35 H111         2.9060     2.2980   -24.5180 hc         1 R6Q       0.062200
     36 H142         3.0240     3.7520   -20.7550 h1         1 R6Q       0.042200
     37 H141         3.9270     5.0430   -21.5560 h1         1 R6Q       0.042200
     38 H152         2.6760     4.7740   -23.6180 hc         1 R6Q       0.062200
     39 H151         1.5660     5.0760   -22.2870 hc         1 R6Q       0.062200
     40 H162         5.2700     2.5300   -20.4130 h1         1 R6Q       0.037700
     41 H161         6.1840     2.0550   -21.8450 h1         1 R6Q       0.037700
     42 H172         6.7200     4.4920   -22.2640 hc         1 R6Q       0.057700
     43 H171         5.9710     4.8890   -20.7260 hc         1 R6Q       0.057700
     44 H191         8.9450     3.4550   -22.3420 ha         1 R6Q       0.120500
     45 H201        11.0390     2.8970   -21.1580 ha         1 R6Q       0.129500
     46 H221         9.0120     3.4160   -17.3600 ha         1 R6Q       0.129500
     47 H231         6.9260     3.9720   -18.5580 ha         1 R6Q       0.120500
     48 H071        -1.7050     0.9880   -22.8090 hn         1 R6Q       0.171000
     49 C16          5.5760     2.8620   -21.4150 c3         1 R6Q       0.171800
@<TRIPOS>BOND
     1     1    10 1   
     2     1    25 1   
     3     1    28 1   
     4     1    29 1   
     5     2     3 ar  
     6     2     7 ar  
     7     2    30 1   
     8     3     4 ar  
     9     3    31 1   
    10     4     5 ar  
    11     4    32 1   
    12     5     6 ar  
    13     5    33 1   
    14     6     7 ar  
    15     6    24 1   
    16     7     9 1   
    17     8    24 1   
    18     8    26 1   
    19     8    27 2   
    20     9    10 1   
    21     9    12 1   
    22     9    26 1   
    23    10    34 1   
    24    10    35 1   
    25    11    12 1   
    26    11    25 1   
    27    11    36 1   
    28    11    37 1   
    29    12    38 1   
    30    12    39 1   
    31    13    14 1   
    32    13    42 1   
    33    13    43 1   
    34    13    49 1   
    35    14    15 ar  
    36    14    19 ar  
    37    15    16 ar  
    38    15    44 1   
    39    16    17 ar  
    40    16    45 1   
    41    17    18 ar  
    42    17    20 1   
    43    18    19 ar  
    44    18    46 1   
    45    19    47 1   
    46    20    21 1   
    47    20    22 1   
    48    20    23 1   
    49    24    48 1   
    50    25    49 1   
    51    40    49 1   
    52    41    49 1   
@<TRIPOS>SUBSTRUCTURE
     1 R6Q         1 TEMP              0 ****  ****    0 ROOT
