@<TRIPOS>MOLECULE
R6Q
   49    52     1     0     0
SMALL
abcg2


@<TRIPOS>ATOM
      1 C12          3.7190     1.8220   -22.5760 c6         1 R6Q       0.168800
      2 C01          0.4640     4.1770   -25.0500 ca         1 R6Q      -0.058000
      3 C02         -0.5670     4.2310   -25.9800 ca         1 R6Q      -0.140000
      4 C03         -1.6370     3.3530   -25.8740 ca         1 R6Q      -0.067000
      5 C04         -1.6840     2.4300   -24.8410 ca         1 R6Q      -0.157000
      6 C05         -0.6460     2.3840   -23.9180 ca         1 R6Q      -0.006000
      7 C06          0.4380     3.2530   -24.0160 ca         1 R6Q      -0.160300
      8 C08          0.0640     1.6320   -21.7350 c          1 R6Q       0.715100
      9 C10          1.5500     3.0540   -23.0210 c6         1 R6Q       0.262300
     10 C11          2.5480     2.0120   -23.5290 c6         1 R6Q      -0.079400
     11 C14          3.4810     4.0500   -21.7320 c6         1 R6Q       0.168800
     12 C15          2.3060     4.3250   -22.6600 c6         1 R6Q      -0.079400
     13 C17          6.5410     4.0560   -21.5170 c3         1 R6Q      -0.039100
     14 C18          7.7680     3.7490   -20.7090 ca         1 R6Q      -0.049300
     15 C19          8.9220     3.2600   -21.3110 ca         1 R6Q      -0.116000
     16 C20         10.0410     2.9300   -20.5590 ca         1 R6Q      -0.058000
     17 C21         10.0150     3.0840   -19.1810 ca         1 R6Q      -0.199300
     18 C22          8.8680     3.5740   -18.5620 ca         1 R6Q      -0.058000
     19 C23          7.7600     3.9010   -19.3220 ca         1 R6Q      -0.116000
     20 C24         11.1970     2.7450   -18.3320 c3         1 R6Q       0.356300
     21 F25         11.6800     3.8230   -17.6940 f          1 R6Q      -0.114667
     22 F26         10.8840     1.8530   -17.3790 f          1 R6Q      -0.114667
     23 F27         12.2090     2.2240   -19.0330 f          1 R6Q      -0.114667
     24 N07         -0.6600     1.4660   -22.8720 ns         1 R6Q      -0.174000
     25 N13          4.3940     3.0800   -22.3120 n3         1 R6Q      -0.725600
     26 O09          0.9820     2.5950   -21.7700 os         1 R6Q      -0.443100
     27 O28         -0.1110     0.9910   -20.7260 o          1 R6Q      -0.532000
     28 H121         3.3770     1.3330   -21.6490 h1         1 R6Q       0.042200
     29 H122         4.4300     1.1360   -23.0420 h1         1 R6Q       0.042200
     30 H011         1.2980     4.8580   -25.1520 ha         1 R6Q       0.119000
     31 H021        -0.5300     4.9530   -26.7840 ha         1 R6Q       0.120000
     32 H031        -2.4440     3.3880   -26.5930 ha         1 R6Q       0.118000
     33 H041        -2.5220     1.7500   -24.7490 ha         1 R6Q       0.121000
     34 H112         2.0560     1.0520   -23.7070 hc         1 R6Q       0.062200
     35 H111         2.9210     2.3550   -24.4970 hc         1 R6Q       0.062200
     36 H142         3.1200     3.7270   -20.7420 h1         1 R6Q       0.042200
     37 H141         4.0060     4.9940   -21.5740 h1         1 R6Q       0.042200
     38 H152         2.6870     4.7800   -23.5760 hc         1 R6Q       0.062200
     39 H151         1.6290     5.0470   -22.1980 hc         1 R6Q       0.062200
     40 H162         5.3100     2.6310   -20.4510 h1         1 R6Q       0.037700
     41 H161         6.1020     1.9980   -21.8870 h1         1 R6Q       0.037700
     42 H172         6.8130     4.2720   -22.5520 hc         1 R6Q       0.057700
     43 H171         6.0620     4.9520   -21.1170 hc         1 R6Q       0.057700
     44 H191         8.9550     3.1350   -22.3870 ha         1 R6Q       0.120500
     45 H201        10.9210     2.5560   -21.0640 ha         1 R6Q       0.129500
     46 H221         8.8280     3.7040   -17.4880 ha         1 R6Q       0.129500
     47 H231         6.8740     4.2850   -18.8300 ha         1 R6Q       0.120500
     48 H071        -1.4050     0.7870   -22.8330 hn         1 R6Q       0.171000
     49 C16          5.5740     2.8710   -21.4960 c3         1 R6Q       0.171800
@<TRIPOS>BOND
     1     1    10 1   
     2     1    25 1   
     3     1    28 1   
     4     1    29 1   
     5     2     3 ar  
     6     2     7 ar  
     7     2    30 1   
     8     3     4 ar  
     9     3    31 1   
    10     4     5 ar  
    11     4    32 1   
    12     5     6 ar  
    13     5    33 1   
    14     6     7 ar  
    15     6    24 1   
    16     7     9 1   
    17     8    24 1   
    18     8    26 1   
    19     8    27 2   
    20     9    10 1   
    21     9    12 1   
    22     9    26 1   
    23    10    34 1   
    24    10    35 1   
    25    11    12 1   
    26    11    25 1   
    27    11    36 1   
    28    11    37 1   
    29    12    38 1   
    30    12    39 1   
    31    13    14 1   
    32    13    42 1   
    33    13    43 1   
    34    13    49 1   
    35    14    15 ar  
    36    14    19 ar  
    37    15    16 ar  
    38    15    44 1   
    39    16    17 ar  
    40    16    45 1   
    41    17    18 ar  
    42    17    20 1   
    43    18    19 ar  
    44    18    46 1   
    45    19    47 1   
    46    20    21 1   
    47    20    22 1   
    48    20    23 1   
    49    24    48 1   
    50    25    49 1   
    51    40    49 1   
    52    41    49 1   
@<TRIPOS>SUBSTRUCTURE
     1 R6Q         1 TEMP              0 ****  ****    0 ROOT
