@<TRIPOS>MOLECULE
R6S
   76    80     1     0     0
SMALL
abcg2


@<TRIPOS>ATOM
      1 C10         34.0740    -0.6250    10.3800 ca         1 R6S      -0.129000
      2 N12         32.0420    -0.1830    11.6640 nu         1 R6S      -0.946900
      3 C13         32.4520     0.5970    12.6970 ca         1 R6S       0.424900
      4 C15         32.0660     2.1680    14.3930 ca         1 R6S       0.170900
      5 C17         34.1180     1.3160    14.0610 ca         1 R6S       0.416900
      6 C20         37.7930     0.9980    14.3150 ca         1 R6S      -0.189000
      7 C21         38.9170     0.3230    13.8690 ca         1 R6S      -0.058000
      8 C22         38.8450    -0.7840    13.0250 ca         1 R6S      -0.138300
      9 C26         40.0300    -1.5710    12.5060 c6         1 R6S      -0.000400
     10 C28         40.9150    -0.0910    10.6420 c6         1 R6S       0.164300
     11 C01         31.3270    -4.8520     6.5720 c3         1 R6S      -0.083100
     12 C02         30.4670    -4.5770     7.7980 c3         1 R6S      -0.249000
     13 C03         30.2120    -3.0830     7.9460 c3         1 R6S      -0.083100
     14 C06         34.0290    -5.0430     8.7570 c5         1 R6S       0.233800
     15 C07         34.9120    -3.8320     8.4330 c5         1 R6S      -0.037100
     16 C08         34.3320    -2.7490     9.2930 ca         1 R6S      -0.139300
     17 C09         34.8220    -1.4950     9.5970 ca         1 R6S      -0.053000
     18 C11         32.8410    -1.0330    10.8830 ca         1 R6S       0.319000
     19 C14         31.5260     1.4300    13.3630 ca         1 R6S      -0.291300
     20 C19         36.5110     0.5870    13.9380 ca         1 R6S       0.344000
     21 C23         37.5520    -1.1740    12.7020 ca         1 R6S       0.187000
     22 C25         36.4010    -0.5370    13.1180 ca         1 R6S      -0.178000
     23 C27         40.2280    -1.4000    10.9890 c6         1 R6S      -0.069400
     24 C30         42.0730    -0.0220    12.7240 c6         1 R6S       0.164300
     25 C31         41.3620    -1.2830    13.2060 c6         1 R6S      -0.069400
     26 C34         30.0840     1.5130    12.9760 c3         1 R6S      -0.024800
     27 C35         32.3360    -2.3020    10.5900 ca         1 R6S      -0.179000
     28 C36         33.0850    -3.1370     9.7780 ca         1 R6S       0.316000
     29 C39         29.1510    -5.3500     7.7290 c3         1 R6S      -0.083100
     30 F24         37.3850    -2.2720    11.9370 f          1 R6S      -0.185000
     31 N05         32.8100    -4.4420     9.3360 nh         1 R6S      -0.793300
     32 N16         33.3440     2.1380    14.7640 nb         1 R6S      -0.267000
     33 N18         35.4320     1.3010    14.4390 nu         1 R6S      -0.930900
     34 N29         42.2140    -0.0060    11.2810 n3         1 R6S      -0.712600
     35 N33         33.7270     0.5460    13.0590 nb         1 R6S      -0.298000
     36 O37         30.5840    -4.8050    10.4610 o          1 R6S      -0.529000
     37 O38         31.6350    -6.6090     9.0790 o          1 R6S      -0.529000
     38 S04         31.3430    -5.1970     9.2810 s6         1 R6S       1.203100
     39 H1          34.4530     0.3620    10.5950 ha         1 R6S       0.137000
     40 H2          31.0470    -0.2830    11.5410 hn         1 R6S       0.506000
     41 H3          31.4220     2.8370    14.9570 h4         1 R6S       0.020100
     42 H4          37.9150     1.8580    14.9630 ha         1 R6S       0.115000
     43 H5          39.8800     0.6840    14.2010 ha         1 R6S       0.116000
     44 H6          39.8060    -2.6270    12.6850 hc         1 R6S       0.060700
     45 H7          40.2680     0.7620    10.9180 h1         1 R6S       0.029950
     46 H8          41.0550    -0.0350     9.5590 h1         1 R6S       0.029950
     47 H9          32.2570    -4.2830     6.5900 hc         1 R6S       0.051811
     48 H10         31.5580    -5.9100     6.4530 hc         1 R6S       0.051811
     49 H11         30.7720    -4.5340     5.6890 hc         1 R6S       0.051811
     50 H12         31.1360    -2.5050     7.9640 hc         1 R6S       0.051811
     51 H13         29.6410    -2.7510     7.0770 hc         1 R6S       0.051811
     52 H14         29.6300    -2.8440     8.8350 hc         1 R6S       0.051811
     53 H15         33.8020    -5.6420     7.8800 h1         1 R6S       0.064200
     54 H16         34.4990    -5.6870     9.5020 h1         1 R6S       0.064200
     55 H17         35.9590    -4.0370     8.6500 hc         1 R6S       0.061200
     56 H18         34.8430    -3.5630     7.3750 hc         1 R6S       0.061200
     57 H19         35.7830    -1.1770     9.2110 ha         1 R6S       0.121000
     58 H20         35.4410    -0.9130    12.8030 ha         1 R6S       0.168000
     59 H21         39.2800    -1.4670    10.4550 hc         1 R6S       0.049450
     60 H22         40.8490    -2.2230    10.6260 hc         1 R6S       0.049450
     61 H23         43.0690     0.0110    13.1740 h1         1 R6S       0.029950
     62 H24         41.5480     0.8830    13.0730 h1         1 R6S       0.029950
     63 H25         42.0230    -2.1330    13.0150 hc         1 R6S       0.049450
     64 H26         41.2310    -1.2360    14.2900 hc         1 R6S       0.049450
     65 H27         43.9380     1.1720    11.3040 h1         1 R6S       0.029367
     66 H28         43.0830     1.1340     9.7620 h1         1 R6S       0.029367
     67 H29         42.4490     2.1070    11.0990 h1         1 R6S       0.029367
     68 H30         29.5700     0.5540    13.0870 hc         1 R6S       0.040367
     69 H31         29.5600     2.2330    13.6050 hc         1 R6S       0.040367
     70 H32         29.9570     1.8300    11.9390 hc         1 R6S       0.040367
     71 H33         31.3850    -2.6050    11.0030 ha         1 R6S       0.147000
     72 H34         28.5320    -5.1870     8.6120 hc         1 R6S       0.051811
     73 H35         28.5930    -4.9910     6.8630 hc         1 R6S       0.051811
     74 H36         29.3100    -6.4200     7.6030 hc         1 R6S       0.051811
     75 H37         35.6490     1.9780    15.1540 hn         1 R6S       0.513000
     76 C32         42.9480     1.1580    10.8450 c3         1 R6S       0.152100
@<TRIPOS>BOND
     1     1    17 ar  
     2     1    18 ar  
     3     1    39 1   
     4     2     3 1   
     5     2    18 1   
     6     2    40 1   
     7     3    19 ar  
     8     3    35 ar  
     9     4    19 ar  
    10     4    32 ar  
    11     4    41 1   
    12     5    32 ar  
    13     5    33 1   
    14     5    35 ar  
    15     6     7 ar  
    16     6    20 ar  
    17     6    42 1   
    18     7     8 ar  
    19     7    43 1   
    20     8     9 1   
    21     8    21 ar  
    22     9    23 1   
    23     9    25 1   
    24     9    44 1   
    25    10    23 1   
    26    10    34 1   
    27    10    45 1   
    28    10    46 1   
    29    11    12 1   
    30    11    47 1   
    31    11    48 1   
    32    11    49 1   
    33    12    13 1   
    34    12    29 1   
    35    12    38 1   
    36    13    50 1   
    37    13    51 1   
    38    13    52 1   
    39    14    15 1   
    40    14    31 1   
    41    14    53 1   
    42    14    54 1   
    43    15    16 1   
    44    15    55 1   
    45    15    56 1   
    46    16    17 ar  
    47    16    28 ar  
    48    17    57 1   
    49    18    27 ar  
    50    19    26 1   
    51    20    22 ar  
    52    20    33 1   
    53    21    22 ar  
    54    21    30 1   
    55    22    58 1   
    56    23    59 1   
    57    23    60 1   
    58    24    25 1   
    59    24    34 1   
    60    24    61 1   
    61    24    62 1   
    62    25    63 1   
    63    25    64 1   
    64    26    68 1   
    65    26    69 1   
    66    26    70 1   
    67    27    28 ar  
    68    27    71 1   
    69    28    31 1   
    70    29    72 1   
    71    29    73 1   
    72    29    74 1   
    73    31    38 1   
    74    33    75 1   
    75    34    76 1   
    76    36    38 2   
    77    37    38 2   
    78    65    76 1   
    79    66    76 1   
    80    67    76 1   
@<TRIPOS>SUBSTRUCTURE
     1 R6S         1 TEMP              0 ****  ****    0 ROOT
