@<TRIPOS>MOLECULE
R6S
   76    80     1     0     0
SMALL
No Charge or Current Charge


@<TRIPOS>ATOM
      1 C10         34.2520    -1.1960    10.6360 ca         1 R6S      -0.129000
      2 N12         32.1920    -0.5700    11.8380 nu         1 R6S      -0.946900
      3 C13         32.5340     0.3610    12.8130 ca         1 R6S       0.424900
      4 C15         31.9940     2.0680    14.4020 ca         1 R6S       0.170900
      5 C17         34.1250     1.2810    14.1660 ca         1 R6S       0.416900
      6 C20         37.8440     1.3930    14.2880 ca         1 R6S      -0.189000
      7 C21         39.0520     0.7660    13.9330 ca         1 R6S      -0.058000
      8 C22         39.0610    -0.5700    13.4680 ca         1 R6S      -0.138300
      9 C26         40.3640    -1.3090    13.0550 c6         1 R6S      -0.000400
     10 C28         40.7360    -0.4990    10.6410 c6         1 R6S       0.164300
     11 C01         31.3690    -4.2710     6.3130 c3         1 R6S      -0.083100
     12 C02         30.4120    -4.1440     7.5340 c3         1 R6S      -0.249000
     13 C03         30.3290    -2.6500     7.9600 c3         1 R6S      -0.083100
     14 C06         33.7310    -5.4890     8.5990 c5         1 R6S       0.233800
     15 C07         34.8990    -4.4200     8.6090 c5         1 R6S      -0.037100
     16 C08         34.3120    -3.3000     9.4510 ca         1 R6S      -0.139300
     17 C09         34.9600    -2.1220     9.8470 ca         1 R6S      -0.053000
     18 C11         32.9220    -1.4590    11.0400 ca         1 R6S       0.319000
     19 C14         31.5550     1.1810    13.4010 ca         1 R6S      -0.291300
     20 C19         36.6250     0.7100    14.1950 ca         1 R6S       0.344000
     21 C23         37.8260    -1.2600    13.4280 ca         1 R6S       0.187000
     22 C25         36.6270    -0.6290    13.7850 ca         1 R6S      -0.178000
     23 C27         40.3860    -1.7000    11.5480 c6         1 R6S      -0.069400
     24 C30         42.0960     0.5260    12.4020 c6         1 R6S       0.164300
     25 C31         41.7110    -0.6010    13.4020 c6         1 R6S      -0.069400
     26 C34         30.0840     1.1390    12.9930 c3         1 R6S      -0.024800
     27 C35         32.2910    -2.6400    10.6160 ca         1 R6S      -0.179000
     28 C36         33.0040    -3.5390     9.8100 ca         1 R6S       0.316000
     29 C39         28.9910    -4.6220     7.1170 c3         1 R6S      -0.083100
     30 F24         37.7760    -2.5630    13.0680 f          1 R6S      -0.185000
     31 N05         32.6290    -4.7650     9.2890 nh         1 R6S      -0.793300
     32 N16         33.2840     2.1230    14.7840 nb         1 R6S      -0.267000
     33 N18         35.4540     1.3840    14.5520 nu         1 R6S      -0.930900
     34 N29         42.0680     0.0590    10.9920 n3         1 R6S      -0.712600
     35 N33         33.8140     0.4090    13.2000 nb         1 R6S      -0.298000
     36 O37         30.2010    -4.9390    10.1250 o          1 R6S      -0.529000
     37 O38         31.0730    -6.6100     8.4400 o          1 R6S      -0.529000
     38 S04         30.9980    -5.2280     8.9280 s6         1 R6S       1.203100
     39 H1          34.7420    -0.2720    10.9210 ha         1 R6S       0.137000
     40 H2          31.1850    -0.6970    11.7720 hn         1 R6S       0.506000
     41 H3          31.3060     2.7440    14.9070 h4         1 R6S       0.020100
     42 H4          37.8640     2.4240    14.6310 ha         1 R6S       0.115000
     43 H5          39.9660     1.3380    14.0380 ha         1 R6S       0.116000
     44 H6          40.3640    -2.2490    13.6250 hc         1 R6S       0.060700
     45 H7          39.9560     0.2710    10.7380 h1         1 R6S       0.029950
     46 H8          40.7310    -0.8380     9.5950 h1         1 R6S       0.029950
     47 H9          32.3690    -3.8900     6.5510 hc         1 R6S       0.051811
     48 H10         31.4670    -5.3150     5.9900 hc         1 R6S       0.051811
     49 H11         30.9920    -3.6920     5.4610 hc         1 R6S       0.051811
     50 H12         31.3240    -2.2230     8.1270 hc         1 R6S       0.051811
     51 H13         29.8550    -2.0490     7.1740 hc         1 R6S       0.051811
     52 H14         29.7360    -2.5240     8.8740 hc         1 R6S       0.051811
     53 H15         33.4760    -5.7850     7.5720 h1         1 R6S       0.064200
     54 H16         34.0180    -6.3920     9.1550 h1         1 R6S       0.064200
     55 H17         35.8180    -4.8320     9.0410 hc         1 R6S       0.061200
     56 H18         35.1350    -4.0820     7.5940 hc         1 R6S       0.061200
     57 H19         35.9870    -1.9240     9.5470 ha         1 R6S       0.121000
     58 H20         35.7090    -1.2020    13.7570 ha         1 R6S       0.168000
     59 H21         39.4260    -2.1250    11.2320 hc         1 R6S       0.049450
     60 H22         41.1310    -2.4910    11.3890 hc         1 R6S       0.049450
     61 H23         43.1040     0.8870    12.6580 h1         1 R6S       0.029950
     62 H24         41.4200     1.3840    12.5160 h1         1 R6S       0.029950
     63 H25         42.5120    -1.3520    13.3890 hc         1 R6S       0.049450
     64 H26         41.6910    -0.2130    14.4290 hc         1 R6S       0.049450
     65 H27         43.5140     1.4610    10.2980 h1         1 R6S       0.029367
     66 H28         42.5310     0.7170     9.0200 h1         1 R6S       0.029367
     67 H29         41.8220     1.9670    10.0690 h1         1 R6S       0.029367
     68 H30         29.6380     0.1620    13.2180 hc         1 R6S       0.040367
     69 H31         29.4960     1.8970    13.5250 hc         1 R6S       0.040367
     70 H32         29.9640     1.3280    11.9190 hc         1 R6S       0.040367
     71 H33         31.2770    -2.8520    10.9270 ha         1 R6S       0.147000
     72 H34         28.2850    -4.5410     7.9540 hc         1 R6S       0.051811
     73 H35         28.5990    -4.0170     6.2900 hc         1 R6S       0.051811
     74 H36         29.0040    -5.6680     6.7860 hc         1 R6S       0.051811
     75 H37         35.6190     2.2070    15.1290 hn         1 R6S       0.513000
     76 C32         42.5050     1.1070    10.0460 c3         1 R6S       0.152100
@<TRIPOS>BOND
     1     1    17 ar  
     2     1    18 ar  
     3     1    39 1   
     4     2     3 1   
     5     2    18 1   
     6     2    40 1   
     7     3    19 ar  
     8     3    35 ar  
     9     4    19 ar  
    10     4    32 ar  
    11     4    41 1   
    12     5    32 ar  
    13     5    33 1   
    14     5    35 ar  
    15     6     7 ar  
    16     6    20 ar  
    17     6    42 1   
    18     7     8 ar  
    19     7    43 1   
    20     8     9 1   
    21     8    21 ar  
    22     9    23 1   
    23     9    25 1   
    24     9    44 1   
    25    10    23 1   
    26    10    34 1   
    27    10    45 1   
    28    10    46 1   
    29    11    12 1   
    30    11    47 1   
    31    11    48 1   
    32    11    49 1   
    33    12    13 1   
    34    12    29 1   
    35    12    38 1   
    36    13    50 1   
    37    13    51 1   
    38    13    52 1   
    39    14    15 1   
    40    14    31 1   
    41    14    53 1   
    42    14    54 1   
    43    15    16 1   
    44    15    55 1   
    45    15    56 1   
    46    16    17 ar  
    47    16    28 ar  
    48    17    57 1   
    49    18    27 ar  
    50    19    26 1   
    51    20    22 ar  
    52    20    33 1   
    53    21    22 ar  
    54    21    30 1   
    55    22    58 1   
    56    23    59 1   
    57    23    60 1   
    58    24    25 1   
    59    24    34 1   
    60    24    61 1   
    61    24    62 1   
    62    25    63 1   
    63    25    64 1   
    64    26    68 1   
    65    26    69 1   
    66    26    70 1   
    67    27    28 ar  
    68    27    71 1   
    69    28    31 1   
    70    29    72 1   
    71    29    73 1   
    72    29    74 1   
    73    31    38 1   
    74    33    75 1   
    75    34    76 1   
    76    36    38 2   
    77    37    38 2   
    78    65    76 1   
    79    66    76 1   
    80    67    76 1   
@<TRIPOS>SUBSTRUCTURE
     1 R6S         1 TEMP              0 ****  ****    0 ROOT
