@<TRIPOS>MOLECULE
R6T
   26    28     1     0     0
SMALL
No Charge or Current Charge


@<TRIPOS>ATOM
      1 O1         -14.8970   -14.4070    -1.4380 o          1 R6T      -0.593100
      2 C14        -15.3920   -14.1980    -0.3440 c          1 R6T       0.619700
      3 N          -14.8340   -13.2850     0.4790 nt         1 R6T      -0.604000
      4 C6         -16.6770   -14.8210     0.1180 ca         1 R6T      -0.141600
      5 C5         -17.7180   -14.0330     0.6690 ca         1 R6T      -0.072000
      6 C4         -18.9580   -14.6150     1.0130 ca         1 R6T      -0.127000
      7 C3         -19.1810   -15.9880     0.8090 ca         1 R6T      -0.027000
      8 C2         -18.1280   -16.7510     0.2890 ca         1 R6T      -0.190600
      9 C7         -18.0800   -18.2140    -0.0170 c          1 R6T       0.599300
     10 O2         -19.0050   -19.0060     0.1100 o          1 R6T      -0.494100
     11 C8         -16.7020   -18.5430    -0.4940 ca         1 R6T      -0.181600
     12 C13        -16.1480   -19.7800    -0.8480 ca         1 R6T      -0.044000
     13 C12        -14.7820   -19.8100    -1.1880 ca         1 R6T      -0.116000
     14 C11        -14.0090   -18.6280    -1.1410 ca         1 R6T      -0.091000
     15 C10        -14.5940   -17.3960    -0.7750 ca         1 R6T      -0.075000
     16 C9         -15.9770   -17.3420    -0.4780 cp         1 R6T      -0.018000
     17 C1         -16.8680   -16.2240    -0.0400 cp         1 R6T       0.044000
     18 H1         -13.9880   -12.8150     0.1940 hn         1 R6T       0.317000
     19 H2         -15.2520   -13.0950     1.3780 hn         1 R6T       0.317000
     20 H3         -17.5820   -12.9610     0.7990 ha         1 R6T       0.117000
     21 H4         -19.7530   -13.9930     1.4210 ha         1 R6T       0.123000
     22 H5         -20.1390   -16.4440     1.0560 ha         1 R6T       0.135000
     23 H8         -16.7480   -20.6880    -0.8460 ha         1 R6T       0.131000
     24 H9         -14.3150   -20.7530    -1.4650 ha         1 R6T       0.119000
     25 H10        -12.9480   -18.6700    -1.3780 ha         1 R6T       0.117000
     26 H11        -13.9620   -16.5180    -0.7080 ha         1 R6T       0.138000
@<TRIPOS>BOND
     1     1     2 2   
     2     2     3 1   
     3     2     4 1   
     4     3    18 1   
     5     3    19 1   
     6     4     5 ar  
     7     4    17 ar  
     8     5     6 ar  
     9     5    20 1   
    10     6     7 ar  
    11     6    21 1   
    12     7     8 ar  
    13     7    22 1   
    14     8     9 1   
    15     8    17 ar  
    16     9    10 2   
    17     9    11 1   
    18    11    12 ar  
    19    11    16 ar  
    20    12    13 ar  
    21    12    23 1   
    22    13    14 ar  
    23    13    24 1   
    24    14    15 ar  
    25    14    25 1   
    26    15    16 ar  
    27    15    26 1   
    28    16    17 1   
@<TRIPOS>SUBSTRUCTURE
     1 R6T         1 TEMP              0 ****  ****    0 ROOT
