@<TRIPOS>MOLECULE
R6T
   26    28     1     0     0
SMALL
bcc


@<TRIPOS>ATOM
      1 O1         -14.9110   -14.2870    -1.4340 o          1 R6T      -0.593100
      2 C14        -15.3840   -14.1480    -0.3170 c          1 R6T       0.686700
      3 N          -14.8580   -13.3540     0.6230 nt         1 R6T      -0.671000
      4 C6         -16.6480   -14.8450     0.0860 ca         1 R6T      -0.141600
      5 C5         -17.7070   -14.0720     0.5790 ca         1 R6T      -0.090000
      6 C4         -18.9360   -14.6280     0.9010 ca         1 R6T      -0.145000
      7 C3         -19.1370   -15.9960     0.7520 ca         1 R6T      -0.045000
      8 C2         -18.0900   -16.7570     0.2780 ca         1 R6T      -0.190600
      9 C7         -18.0590   -18.2250     0.0620 c          1 R6T       0.599300
     10 O2         -18.9610   -19.0080     0.2470 o          1 R6T      -0.494100
     11 C8         -16.6900   -18.5200    -0.4170 ca         1 R6T      -0.181600
     12 C13        -16.1400   -19.7450    -0.7340 ca         1 R6T      -0.062000
     13 C12        -14.8100   -19.7820    -1.1430 ca         1 R6T      -0.134000
     14 C11        -14.0770   -18.6050    -1.2210 ca         1 R6T      -0.109000
     15 C10        -14.6400   -17.3670    -0.9050 ca         1 R6T      -0.093000
     16 C9         -15.9620   -17.3240    -0.4990 cp         1 R6T      -0.018000
     17 C1         -16.8480   -16.2110    -0.0700 cp         1 R6T       0.044000
     18 H1         -14.0190   -12.8300     0.4340 hn         1 R6T       0.317000
     19 H2         -15.2210   -13.3250     1.5610 hn         1 R6T       0.317000
     20 H3         -17.5710   -13.0050     0.6970 ha         1 R6T       0.135000
     21 H4         -19.7320   -13.9950     1.2680 ha         1 R6T       0.141000
     22 H5         -20.0850   -16.4510     1.0070 ha         1 R6T       0.153000
     23 H8         -16.7260   -20.6520    -0.6580 ha         1 R6T       0.149000
     24 H9         -14.3460   -20.7250    -1.3970 ha         1 R6T       0.137000
     25 H10        -13.0430   -18.6440    -1.5360 ha         1 R6T       0.135000
     26 H11        -14.0350   -16.4780    -0.9890 ha         1 R6T       0.156000
@<TRIPOS>BOND
     1     1     2 2   
     2     2     3 1   
     3     2     4 1   
     4     3    18 1   
     5     3    19 1   
     6     4     5 ar  
     7     4    17 ar  
     8     5     6 ar  
     9     5    20 1   
    10     6     7 ar  
    11     6    21 1   
    12     7     8 ar  
    13     7    22 1   
    14     8     9 1   
    15     8    17 ar  
    16     9    10 2   
    17     9    11 1   
    18    11    12 ar  
    19    11    16 ar  
    20    12    13 ar  
    21    12    23 1   
    22    13    14 ar  
    23    13    24 1   
    24    14    15 ar  
    25    14    25 1   
    26    15    16 ar  
    27    15    26 1   
    28    16    17 1   
@<TRIPOS>SUBSTRUCTURE
     1 R6T         1 TEMP              0 ****  ****    0 ROOT
