@<TRIPOS>MOLECULE
R6V
   68    73     1     0     0
SMALL
abcg2


@<TRIPOS>ATOM
      1 C13         31.9270    -1.8340    11.4240 cc         1 R6V      -0.119000
      2 C15         33.3040    -0.1460    12.7810 ca         1 R6V       0.319500
      3 C17         34.8330     1.0840    13.9810 ca         1 R6V       0.415900
      4 C20         38.5050     1.4050    14.2670 ca         1 R6V      -0.154500
      5 C21         39.7430     0.8560    13.9920 ca         1 R6V      -0.078000
      6 C22         39.8660    -0.4050    13.4090 ca         1 R6V      -0.106300
      7 C24         42.1190    -1.1220    14.3160 c6         1 R6V      -0.069900
      8 C28         41.9390    -0.2140    11.9900 c6         1 R6V      -0.069900
      9 C03         31.7480    -5.1350    10.1010 c3         1 R6V      -0.024300
     10 C04         31.3790    -3.6720     9.8230 c3         1 R6V       0.117300
     11 C05         31.4020    -3.3600     8.3320 c5         1 R6V      -0.085700
     12 C06         31.0910    -1.8960     8.0130 c5         1 R6V      -0.076400
     13 C07         30.6940    -1.9470     6.5420 c5         1 R6V      -0.079400
     14 C08         29.8210    -3.2020     6.4450 c5         1 R6V      -0.079400
     15 C09         30.3540    -4.1620     7.5320 c5         1 R6V      -0.076400
     16 C12         34.1050    -1.9380    11.1390 cd         1 R6V       0.296900
     17 C14         33.1020    -1.2340    11.8410 cd         1 R6V      -0.282500
     18 C19         37.3230     0.7140    13.9710 ca         1 R6V       0.324000
     19 C23         41.2120    -1.0000    13.0870 c6         1 R6V      -0.009400
     20 C25         43.4760    -1.6940    13.9310 c6         1 R6V       0.158800
     21 C27         43.3030    -0.8230    11.7010 c6         1 R6V       0.158800
     22 C29         38.6880    -1.0820    13.1180 ca         1 R6V      -0.078000
     23 C30         37.4320    -0.5490    13.3880 ca         1 R6V      -0.154500
     24 C32         32.6980     1.6410    14.2060 ca         1 R6V       0.177500
     25 C33         32.2740     0.6340    13.3110 ca         1 R6V      -0.237800
     26 C34         30.8480     0.7410    13.2170 cc         1 R6V      -0.199200
     27 C35         30.4850     1.7660    14.0330 cd         1 R6V      -0.174100
     28 N01         31.7800    -5.6320    12.6570 n1         1 R6V      -0.446000
     29 N10         32.2710    -2.7950    10.5570 na         1 R6V       0.124800
     30 N11         33.5890    -2.8690    10.3680 nc         1 R6V      -0.538800
     31 N16         34.5680     0.0980    13.1260 nb         1 R6V      -0.263000
     32 N18         36.1320     1.3390    14.3240 nu         1 R6V      -0.933900
     33 N26         44.0970    -0.8620    12.9160 n7         1 R6V      -0.862400
     34 N31         33.9460     1.8900    14.5600 nb         1 R6V      -0.279000
     35 N36         31.6010     2.3070    14.6290 na         1 R6V      -0.331400
     36 H1          30.8950    -1.6660    11.6820 h4         1 R6V       0.158000
     37 H3          40.6280     1.4310    14.2380 ha         1 R6V       0.111500
     38 H4          42.2640    -0.1390    14.7730 hc         1 R6V       0.048950
     39 H5          41.6490    -1.7610    15.0670 hc         1 R6V       0.048950
     40 H6          42.0690     0.8260    12.3060 hc         1 R6V       0.048950
     41 H7          41.3390    -0.1990    11.0780 hc         1 R6V       0.048950
     42 H8          31.0220    -5.7970     9.6270 hc         1 R6V       0.088200
     43 H9          32.7280    -5.3710     9.6810 hc         1 R6V       0.088200
     44 H10         30.3760    -3.4770    10.2110 h1         1 R6V       0.066700
     45 H11         32.4010    -3.5910     7.9490 hc         1 R6V       0.077700
     46 H12         31.9330    -1.2300     8.2080 hc         1 R6V       0.046200
     47 H13         30.2470    -1.5480     8.6180 hc         1 R6V       0.046200
     48 H14         31.5900    -2.0550     5.9240 hc         1 R6V       0.046450
     49 H15         30.1790    -1.0460     6.2070 hc         1 R6V       0.046450
     50 H16         28.7820    -2.9450     6.6530 hc         1 R6V       0.046450
     51 H17         29.8440    -3.6480     5.4510 hc         1 R6V       0.046450
     52 H18         29.5390    -4.4970     8.1790 hc         1 R6V       0.046200
     53 H19         30.7960    -5.0610     7.1020 hc         1 R6V       0.046200
     54 H20         35.1720    -1.7830    11.1750 h4         1 R6V       0.054100
     55 H21         41.0440    -2.0150    12.7050 hc         1 R6V       0.044700
     56 H22         43.3390    -2.7350    13.5950 h1         1 R6V       0.027700
     57 H23         44.1270    -1.7260    14.8070 h1         1 R6V       0.027700
     58 H24         43.1560    -1.8250    11.2620 h1         1 R6V       0.027700
     59 H25         43.8280    -0.2240    10.9530 h1         1 R6V       0.027700
     60 H26         38.7390    -2.0670    12.6660 ha         1 R6V       0.111500
     61 H27         36.5490    -1.1170    13.1440 ha         1 R6V       0.127000
     62 H28         30.1670     0.1510    12.6270 ha         1 R6V       0.199000
     63 H29         29.5060     2.1660    14.2420 h4         1 R6V       0.216000
     64 H30         36.2330     2.1570    14.9050 hn         1 R6V       0.507000
     65 H31         45.0190    -1.2200    12.7040 hn         1 R6V       0.408000
     66 H33         31.6020     3.0810    15.2750 hn         1 R6V       0.361000
     67 C02         31.7700    -5.4210    11.5270 c1         1 R6V       0.294900
     68 H2          38.4500     2.3890    14.7190 ha         1 R6V       0.127000
@<TRIPOS>BOND
     1     1    17 2   
     2     1    29 1   
     3     1    36 1   
     4     2    17 1   
     5     2    25 ar  
     6     2    31 ar  
     7     3    31 ar  
     8     3    32 1   
     9     3    34 ar  
    10     4     5 ar  
    11     4    18 ar  
    12     4    68 1   
    13     5     6 ar  
    14     5    37 1   
    15     6    19 1   
    16     6    22 ar  
    17     7    19 1   
    18     7    20 1   
    19     7    38 1   
    20     7    39 1   
    21     8    19 1   
    22     8    21 1   
    23     8    40 1   
    24     8    41 1   
    25     9    10 1   
    26     9    42 1   
    27     9    43 1   
    28     9    67 1   
    29    10    11 1   
    30    10    29 1   
    31    10    44 1   
    32    11    12 1   
    33    11    15 1   
    34    11    45 1   
    35    12    13 1   
    36    12    46 1   
    37    12    47 1   
    38    13    14 1   
    39    13    48 1   
    40    13    49 1   
    41    14    15 1   
    42    14    50 1   
    43    14    51 1   
    44    15    52 1   
    45    15    53 1   
    46    16    17 1   
    47    16    30 2   
    48    16    54 1   
    49    18    23 ar  
    50    18    32 1   
    51    19    55 1   
    52    20    33 1   
    53    20    56 1   
    54    20    57 1   
    55    21    33 1   
    56    21    58 1   
    57    21    59 1   
    58    22    23 ar  
    59    22    60 1   
    60    23    61 1   
    61    24    25 ar  
    62    24    34 ar  
    63    24    35 1   
    64    25    26 1   
    65    26    27 2   
    66    26    62 1   
    67    27    35 1   
    68    27    63 1   
    69    28    67 3   
    70    29    30 1   
    71    32    64 1   
    72    33    65 1   
    73    35    66 1   
@<TRIPOS>SUBSTRUCTURE
     1 R6V         1 TEMP              0 ****  ****    0 ROOT
