@<TRIPOS>MOLECULE
R6V
   68    73     1     0     0
SMALL
No Charge or Current Charge


@<TRIPOS>ATOM
      1 C13         31.8990    -1.8000    11.4400 cc         1 R6V      -0.119000
      2 C15         33.3090    -0.1190    12.7780 ca         1 R6V       0.319500
      3 C17         34.8490     1.0480    14.0350 ca         1 R6V       0.415900
      4 C20         38.5540     1.5250    14.1050 ca         1 R6V      -0.154500
      5 C21         39.8160     0.9750    13.8180 ca         1 R6V      -0.078000
      6 C22         39.9410    -0.3910    13.4950 ca         1 R6V      -0.106300
      7 C24         42.2870    -0.9180    14.3850 c6         1 R6V      -0.069900
      8 C28         41.9710    -0.3630    11.9290 c6         1 R6V      -0.069900
      9 C03         31.7190    -5.1670    10.0310 c3         1 R6V      -0.024300
     10 C04         31.3530    -3.6760     9.7850 c3         1 R6V       0.117300
     11 C05         31.2070    -3.3200     8.2730 c5         1 R6V      -0.085700
     12 C06         30.7480    -1.8620     7.9970 c5         1 R6V      -0.076400
     13 C07         30.5440    -1.8820     6.4580 c5         1 R6V      -0.079400
     14 C08         30.0240    -3.3220     6.1510 c5         1 R6V      -0.079400
     15 C09         30.0770    -4.0700     7.5160 c5         1 R6V      -0.076400
     16 C12         34.0910    -1.8440    11.0520 cd         1 R6V       0.296900
     17 C14         33.0780    -1.1970    11.7970 cd         1 R6V      -0.282500
     18 C19         37.3990     0.7270    14.0660 ca         1 R6V       0.324000
     19 C23         41.3130    -1.0070    13.1790 c6         1 R6V      -0.009400
     20 C25         43.6660    -1.5300    14.0340 c6         1 R6V       0.158800
     21 C27         43.3590    -0.9890    11.6440 c6         1 R6V       0.158800
     22 C29         38.7850    -1.1960    13.4720 ca         1 R6V      -0.078000
     23 C30         37.5250    -0.6410    13.7600 ca         1 R6V      -0.154500
     24 C32         32.6600     1.6060    14.3350 ca         1 R6V       0.177500
     25 C33         32.3060     0.6560    13.4060 ca         1 R6V      -0.237800
     26 C34         30.8760     0.7140    13.2530 cc         1 R6V      -0.199200
     27 C35         30.4160     1.6910    14.1190 cd         1 R6V      -0.174100
     28 N01         31.7040    -5.8350    12.5770 n1         1 R6V      -0.446000
     29 N10         32.2720    -2.7520    10.4970 na         1 R6V       0.124800
     30 N11         33.6300    -2.7850    10.2530 nc         1 R6V      -0.538800
     31 N16         34.5990     0.1040    13.1080 nb         1 R6V      -0.263000
     32 N18         36.1680     1.3190    14.3700 nu         1 R6V      -0.933900
     33 N26         44.2480    -0.8940    12.8270 n7         1 R6V      -0.862400
     34 N31         33.9450     1.8200    14.6630 nb         1 R6V      -0.279000
     35 N36         31.5240     2.2440    14.8020 na         1 R6V      -0.331400
     36 H1          30.8750    -1.6740    11.7600 h4         1 R6V       0.158000
     37 H3          40.6940     1.6160    13.8470 ha         1 R6V       0.111500
     38 H4          42.4230     0.1280    14.6900 hc         1 R6V       0.048950
     39 H5          41.8610    -1.4440    15.2500 hc         1 R6V       0.048950
     40 H6          42.0870     0.7200    12.0730 hc         1 R6V       0.048950
     41 H7          41.3210    -0.4940    11.0530 hc         1 R6V       0.048950
     42 H8          31.0000    -5.8190     9.5260 hc         1 R6V       0.088200
     43 H9          32.7040    -5.3860     9.6050 hc         1 R6V       0.088200
     44 H10         30.3620    -3.5200    10.2300 h1         1 R6V       0.066700
     45 H11         32.1820    -3.5110     7.8060 hc         1 R6V       0.077700
     46 H12         31.4950    -1.1180     8.2990 hc         1 R6V       0.046200
     47 H13         29.8170    -1.6200     8.5240 hc         1 R6V       0.046200
     48 H14         31.4900    -1.6940     5.9360 hc         1 R6V       0.046450
     49 H15         29.8420    -1.1070     6.1300 hc         1 R6V       0.046450
     50 H16         29.0080    -3.3130     5.7400 hc         1 R6V       0.046450
     51 H17         30.6620    -3.8120     5.4070 hc         1 R6V       0.046450
     52 H18         29.1190    -3.9970     8.0450 hc         1 R6V       0.046200
     53 H19         30.2890    -5.1370     7.3800 hc         1 R6V       0.046200
     54 H20         35.1580    -1.6500    11.0690 h4         1 R6V       0.054100
     55 H21         41.1680    -2.0740    12.9560 hc         1 R6V       0.044700
     56 H22         43.5530    -2.6100    13.8580 h1         1 R6V       0.027700
     57 H23         44.3530    -1.4020    14.8830 h1         1 R6V       0.027700
     58 H24         43.2330    -2.0470    11.3670 h1         1 R6V       0.027700
     59 H25         43.8280    -0.4760    10.7910 h1         1 R6V       0.027700
     60 H26         38.8590    -2.2560    13.2380 ha         1 R6V       0.111500
     61 H27         36.6560    -1.2900    13.7600 ha         1 R6V       0.127000
     62 H28         30.2410     0.1550    12.5730 ha         1 R6V       0.199000
     63 H29         29.3970     2.0380    14.2870 h4         1 R6V       0.216000
     64 H30         36.2530     2.1890    14.8920 hn         1 R6V       0.507000
     65 H31         45.1410    -1.3530    12.6080 hn         1 R6V       0.408000
     66 H33         31.5030     2.9840    15.4970 hn         1 R6V       0.361000
     67 C02         31.7270    -5.5360    11.4520 c1         1 R6V       0.294900
     68 H2          38.4770     2.5800    14.3500 ha         1 R6V       0.127000
@<TRIPOS>BOND
     1     1    17 2   
     2     1    29 1   
     3     1    36 1   
     4     2    17 1   
     5     2    25 ar  
     6     2    31 ar  
     7     3    31 ar  
     8     3    32 1   
     9     3    34 ar  
    10     4     5 ar  
    11     4    18 ar  
    12     4    68 1   
    13     5     6 ar  
    14     5    37 1   
    15     6    19 1   
    16     6    22 ar  
    17     7    19 1   
    18     7    20 1   
    19     7    38 1   
    20     7    39 1   
    21     8    19 1   
    22     8    21 1   
    23     8    40 1   
    24     8    41 1   
    25     9    10 1   
    26     9    42 1   
    27     9    43 1   
    28     9    67 1   
    29    10    11 1   
    30    10    29 1   
    31    10    44 1   
    32    11    12 1   
    33    11    15 1   
    34    11    45 1   
    35    12    13 1   
    36    12    46 1   
    37    12    47 1   
    38    13    14 1   
    39    13    48 1   
    40    13    49 1   
    41    14    15 1   
    42    14    50 1   
    43    14    51 1   
    44    15    52 1   
    45    15    53 1   
    46    16    17 1   
    47    16    30 2   
    48    16    54 1   
    49    18    23 ar  
    50    18    32 1   
    51    19    55 1   
    52    20    33 1   
    53    20    56 1   
    54    20    57 1   
    55    21    33 1   
    56    21    58 1   
    57    21    59 1   
    58    22    23 ar  
    59    22    60 1   
    60    23    61 1   
    61    24    25 ar  
    62    24    34 ar  
    63    24    35 1   
    64    25    26 1   
    65    26    27 2   
    66    26    62 1   
    67    27    35 1   
    68    27    63 1   
    69    28    67 3   
    70    29    30 1   
    71    32    64 1   
    72    33    65 1   
    73    35    66 1   
@<TRIPOS>SUBSTRUCTURE
     1 R6V         1 TEMP              0 ****  ****    0 ROOT
