@<TRIPOS>MOLECULE
R6W
   90    97     1     0     0
SMALL
abcg2


@<TRIPOS>ATOM
      1 C4          48.7990     5.0430    85.4810 ca         1 R6W      -0.194000
      2 C5          49.1540     3.7810    85.9130 ca         1 R6W      -0.033800
      3 C6          50.4140     3.5180    86.4210 ca         1 R6W      -0.204600
      4 C7          48.3350     2.5190    85.9380 c5         1 R6W       0.236700
      5 C15         48.3330     2.2900    83.2980 ca         1 R6W      -0.079300
      6 C17         47.6880     1.5910    81.0260 ca         1 R6W      -0.127000
      7 C24         47.0310    -1.0610    88.6940 c3         1 R6W      -0.075400
      8 C26         48.7990    -2.7450    89.3490 c3         1 R6W      -0.074400
      9 C28         50.5730    -4.4310    90.0460 c3         1 R6W       0.166300
     10 C1          51.3710     4.5190    86.5050 ca         1 R6W      -0.007000
     11 C2          51.0380     5.7890    86.0720 ca         1 R6W      -0.162000
     12 C3          49.7570     6.0530    85.5660 ca         1 R6W       0.158100
     13 N8          49.2830     1.5780    86.5100 ns         1 R6W      -0.510400
     14 C9          50.4900     2.0960    86.8160 c          1 R6W       0.586100
     15 O10         51.4370     1.5100    87.3200 o          1 R6W      -0.556500
     16 C11         47.8060     2.0710    84.6120 cc         1 R6W      -0.152400
     17 C12         46.7140     1.2530    84.4710 cd         1 R6W      -0.057300
     18 N13         46.5240     0.9760    83.1500 na         1 R6W      -0.207700
     19 C14         47.4860     1.5940    82.4050 ca         1 R6W      -0.046200
     20 C16         49.4290     2.9890    82.7710 ca         1 R6W      -0.056000
     21 C18         48.7720     2.2940    80.5390 ca         1 R6W      -0.090000
     22 C19         49.6360     2.9830    81.4050 ca         1 R6W      -0.139000
     23 N21         46.6990    -0.1520    86.4340 n7         1 R6W      -0.886900
     24 O22         49.5050     7.3130    85.1730 oh         1 R6W      -0.530600
     25 C23         46.0330    -0.5600    87.6600 c3         1 R6W       0.166300
     26 C25         47.7820    -2.3260    88.2960 c3         1 R6W      -0.074400
     27 C27         49.5600    -4.0140    88.9900 c3         1 R6W      -0.075400
     28 C29         58.0830    -3.1360    95.1280 ca         1 R6W      -0.007000
     29 C30         57.3790    -3.2100    96.3160 ca         1 R6W      -0.162000
     30 C31         55.9800    -3.3070    96.3070 ca         1 R6W       0.158100
     31 C32         55.2720    -3.3340    95.1050 ca         1 R6W      -0.194000
     32 C33         55.9950    -3.2640    93.9310 ca         1 R6W      -0.033800
     33 C34         57.3750    -3.1640    93.9360 ca         1 R6W      -0.204600
     34 C35         55.4940    -3.2710    92.5090 c5         1 R6W       0.236700
     35 N36         56.7410    -3.1090    91.7760 ns         1 R6W      -0.510400
     36 C37         57.8540    -3.0760    92.5430 c          1 R6W       0.586100
     37 O38         59.0080    -2.9860    92.1530 o          1 R6W      -0.556500
     38 C39         54.4870    -2.2150    92.2060 cc         1 R6W      -0.152400
     39 C40         53.2320    -2.4100    91.6890 cd         1 R6W      -0.057300
     40 N41         52.6080    -1.2050    91.5530 na         1 R6W      -0.207700
     41 C42         53.4380    -0.2020    91.9630 ca         1 R6W      -0.046200
     42 C43         54.6410    -0.8010    92.3950 ca         1 R6W      -0.079300
     43 C44         55.6660     0.0170    92.8820 ca         1 R6W      -0.056000
     44 C45         53.2390     1.1760    91.9920 ca         1 R6W      -0.127000
     45 C46         54.2710     1.9600    92.4750 ca         1 R6W      -0.090000
     46 C47         55.4720     1.3850    92.9180 ca         1 R6W      -0.139000
     47 C48         52.4930    -3.6590    91.3330 c3         1 R6W       0.219500
     48 N49         51.5770    -3.4030    90.2440 n7         1 R6W      -0.886900
     49 H1          47.8120     5.2470    85.0810 ha         1 R6W       0.123000
     50 H2          47.4960     2.6470    86.6310 h1         1 R6W       0.063700
     51 H3          47.0220     1.0520    80.3630 ha         1 R6W       0.114500
     52 H6          47.7470    -0.2580    88.8970 hc         1 R6W       0.045200
     53 H7          46.4960    -1.2430    89.6310 hc         1 R6W       0.045200
     54 H8          49.5110    -1.9300    89.5050 hc         1 R6W       0.041450
     55 H9          48.2910    -2.8890    90.3090 hc         1 R6W       0.041450
     56 H10         50.0560    -4.5840    90.9990 h1         1 R6W       0.030700
     57 H11         51.0090    -5.4040    89.7720 h1         1 R6W       0.030700
     58 H12         52.3580     4.3180    86.9020 ha         1 R6W       0.136000
     59 H13         51.7600     6.5940    86.1240 ha         1 R6W       0.132500
     60 H14         48.9790     0.6360    86.7090 hn         1 R6W       0.339000
     61 H15         45.7810     0.4020    82.7830 hn         1 R6W       0.358500
     62 H16         50.1100     3.5270    83.4170 ha         1 R6W       0.123000
     63 H17         48.9620     2.3100    79.4730 ha         1 R6W       0.111000
     64 H18         50.4820     3.5170    80.9930 ha         1 R6W       0.112500
     65 H19         47.0290    -0.9660    85.9310 hn         1 R6W       0.422000
     66 H21         48.6010     7.3920    84.8480 ho         1 R6W       0.467000
     67 H22         45.5230     0.3170    88.0670 h1         1 R6W       0.030700
     68 H23         45.2550    -1.3190    87.4920 h1         1 R6W       0.030700
     69 H24         47.0650    -3.1370    88.1270 hc         1 R6W       0.041450
     70 H25         48.3030    -2.1720    87.3440 hc         1 R6W       0.041450
     71 H26         48.8560    -4.8400    88.8460 hc         1 R6W       0.045200
     72 H27         50.0690    -3.8820    88.0280 hc         1 R6W       0.045200
     73 H28         59.1620    -3.0570    95.1380 ha         1 R6W       0.136000
     74 H29         57.9000    -3.1890    97.2640 ha         1 R6W       0.132500
     75 H30         54.1890    -3.3970    95.0970 ha         1 R6W       0.123000
     76 H31         55.0630    -4.2540    92.2860 h1         1 R6W       0.063700
     77 H32         56.7680    -3.0930    90.7690 hn         1 R6W       0.339000
     78 H33         51.7000    -1.1080    91.1280 hn         1 R6W       0.358500
     79 H34         56.5980    -0.4070    93.2340 ha         1 R6W       0.123000
     80 H35         52.3110     1.6170    91.6490 ha         1 R6W       0.114500
     81 H36         54.1490     3.0340    92.5130 ha         1 R6W       0.111000
     82 H37         56.2590     2.0260    93.2930 ha         1 R6W       0.112500
     83 H38         51.9030    -3.9770    92.1990 h1         1 R6W       0.042700
     84 H39         53.2090    -4.4720    91.1440 h1         1 R6W       0.042700
     85 H40         52.0970    -3.2700    89.3840 hn         1 R6W       0.422000
     86 H42         54.4100    -3.4290    97.3880 ho         1 R6W       0.467000
     87 C20         45.8700     0.6470    85.5450 c3         1 R6W       0.219500
     88 O50         55.3660    -3.3700    97.5000 oh         1 R6W      -0.530600
     89 H4          45.4160     1.4460    86.1380 h1         1 R6W       0.042700
     90 H5          45.0360     0.0890    85.0970 h1         1 R6W       0.042700
@<TRIPOS>BOND
     1     1     2 ar  
     2     1    12 ar  
     3     1    49 1   
     4     2     3 ar  
     5     2     4 1   
     6     3    10 ar  
     7     3    14 1   
     8     4    13 1   
     9     4    16 1   
    10     4    50 1   
    11     5    16 1   
    12     5    19 ar  
    13     5    20 ar  
    14     6    19 ar  
    15     6    21 ar  
    16     6    51 1   
    17     7    25 1   
    18     7    26 1   
    19     7    52 1   
    20     7    53 1   
    21     8    26 1   
    22     8    27 1   
    23     8    54 1   
    24     8    55 1   
    25     9    27 1   
    26     9    48 1   
    27     9    56 1   
    28     9    57 1   
    29    10    11 ar  
    30    10    58 1   
    31    11    12 ar  
    32    11    59 1   
    33    12    24 1   
    34    13    14 1   
    35    13    60 1   
    36    14    15 2   
    37    16    17 2   
    38    17    18 1   
    39    17    87 1   
    40    18    19 1   
    41    18    61 1   
    42    20    22 ar  
    43    20    62 1   
    44    21    22 ar  
    45    21    63 1   
    46    22    64 1   
    47    23    25 1   
    48    23    65 1   
    49    23    87 1   
    50    24    66 1   
    51    25    67 1   
    52    25    68 1   
    53    26    69 1   
    54    26    70 1   
    55    27    71 1   
    56    27    72 1   
    57    28    29 ar  
    58    28    33 ar  
    59    28    73 1   
    60    29    30 ar  
    61    29    74 1   
    62    30    31 ar  
    63    30    88 1   
    64    31    32 ar  
    65    31    75 1   
    66    32    33 ar  
    67    32    34 1   
    68    33    36 1   
    69    34    35 1   
    70    34    38 1   
    71    34    76 1   
    72    35    36 1   
    73    35    77 1   
    74    36    37 2   
    75    38    39 2   
    76    38    42 1   
    77    39    40 1   
    78    39    47 1   
    79    40    41 1   
    80    40    78 1   
    81    41    42 ar  
    82    41    44 ar  
    83    42    43 ar  
    84    43    46 ar  
    85    43    79 1   
    86    44    45 ar  
    87    44    80 1   
    88    45    46 ar  
    89    45    81 1   
    90    46    82 1   
    91    47    48 1   
    92    47    83 1   
    93    47    84 1   
    94    48    85 1   
    95    86    88 1   
    96    87    89 1   
    97    87    90 1   
@<TRIPOS>SUBSTRUCTURE
     1 R6W         1 TEMP              0 ****  ****    0 ROOT
