@<TRIPOS>MOLECULE
R6W
   90    97     1     0     0
SMALL
No Charge or Current Charge


@<TRIPOS>ATOM
      1 C4          46.6950     5.4610    84.4350 ca         1 R6W      -0.194000
      2 C5          47.8760     4.8760    84.9150 ca         1 R6W      -0.033800
      3 C6          49.0560     5.5920    84.9630 ca         1 R6W      -0.204600
      4 C7          48.1250     3.4910    85.4680 c5         1 R6W       0.236700
      5 C15         48.4940     2.4750    82.9800 ca         1 R6W      -0.079300
      6 C17         48.3240     1.0420    81.0370 ca         1 R6W      -0.127000
      7 C24         47.3090    -0.5960    88.9290 c3         1 R6W      -0.075400
      8 C26         49.0040    -2.4080    89.6330 c3         1 R6W      -0.074400
      9 C28         50.6650    -4.2760    90.3370 c3         1 R6W       0.166300
     10 C1          49.1340     6.9230    84.5320 ca         1 R6W      -0.007000
     11 C2          47.9560     7.5250    84.0430 ca         1 R6W      -0.162000
     12 C3          46.7460     6.7990    83.9940 ca         1 R6W       0.158100
     13 N8          49.5690     3.4700    85.7320 ns         1 R6W      -0.510400
     14 C9          50.1270     4.7050    85.4890 c          1 R6W       0.586100
     15 O10         51.2980     4.9980    85.6670 o          1 R6W      -0.556500
     16 C11         47.9400     2.5140    84.3150 cc         1 R6W      -0.152400
     17 C12         47.0990     1.4020    84.4100 cd         1 R6W      -0.057300
     18 N13         47.1280     0.6790    83.1940 na         1 R6W      -0.207700
     19 C14         47.9830     1.3690    82.3570 ca         1 R6W      -0.046200
     20 C16         49.3850     3.3380    82.3190 ca         1 R6W      -0.056000
     21 C18         49.2180     1.8890    80.3490 ca         1 R6W      -0.090000
     22 C19         49.7460     3.0330    80.9900 ca         1 R6W      -0.139000
     23 N21         47.0840     0.4320    86.6770 n7         1 R6W      -0.886900
     24 O22         45.6210     7.4020    83.5180 oh         1 R6W      -0.530600
     25 C23         46.3420    -0.0630    87.8490 c3         1 R6W       0.166300
     26 C25         48.0990    -1.8590    88.5070 c3         1 R6W      -0.074400
     27 C27         49.7950    -3.6710    89.2140 c3         1 R6W      -0.075400
     28 C29         57.9850    -4.5260    95.8570 ca         1 R6W      -0.007000
     29 C30         57.2810    -4.2660    97.0520 ca         1 R6W      -0.162000
     30 C31         55.8890    -4.0340    97.0280 ca         1 R6W       0.158100
     31 C32         55.1790    -4.0600    95.8110 ca         1 R6W      -0.194000
     32 C33         55.8940    -4.3150    94.6310 ca         1 R6W      -0.033800
     33 C34         57.2560    -4.5450    94.6610 ca         1 R6W      -0.204600
     34 C35         55.4130    -4.4280    93.2020 c5         1 R6W       0.236700
     35 N36         56.6430    -4.6390    92.4300 ns         1 R6W      -0.510400
     36 C37         57.7300    -4.7560    93.2680 c          1 R6W       0.586100
     37 O38         58.8760    -4.9770    92.9110 o          1 R6W      -0.556500
     38 C39         54.9410    -3.0450    92.7760 cc         1 R6W      -0.152400
     39 C40         53.7060    -2.8340    92.1560 cd         1 R6W      -0.057300
     40 N41         53.5280    -1.4530    91.9160 na         1 R6W      -0.207700
     41 C42         54.6660    -0.8260    92.3830 ca         1 R6W      -0.046200
     42 C43         55.5430    -1.7360    92.9060 ca         1 R6W      -0.079300
     43 C44         56.7770    -1.3300    93.4440 ca         1 R6W      -0.056000
     44 C45         54.9500     0.5470    92.3570 ca         1 R6W      -0.127000
     45 C46         56.1810     0.9820    92.8900 ca         1 R6W      -0.090000
     46 C47         57.0910     0.0460    93.4310 ca         1 R6W      -0.139000
     47 C48         52.6460    -3.8500    91.7860 c3         1 R6W       0.219500
     48 N49         51.7530    -3.3570    90.7170 n7         1 R6W      -0.886900
     49 H1          45.7710     4.8890    84.4060 ha         1 R6W       0.123000
     50 H2          47.5100     3.2650    86.3490 h1         1 R6W       0.063700
     51 H3          47.9100     0.1600    80.5530 ha         1 R6W       0.114500
     52 H6          48.0100     0.1990    89.2110 hc         1 R6W       0.045200
     53 H7          46.7230    -0.8300    89.8260 hc         1 R6W       0.045200
     54 H8          49.7060    -1.6230    89.9410 hc         1 R6W       0.041450
     55 H9          48.3870    -2.6460    90.5090 hc         1 R6W       0.041450
     56 H10         50.0270    -4.4980    91.2040 h1         1 R6W       0.030700
     57 H11         51.0830    -5.2280    89.9820 h1         1 R6W       0.030700
     58 H12         50.0730     7.4720    84.5680 ha         1 R6W       0.136000
     59 H13         47.9800     8.5560    83.6990 ha         1 R6W       0.132500
     60 H14         50.1200     2.7070    86.1000 hn         1 R6W       0.339000
     61 H15         46.6190    -0.1710    82.9800 hn         1 R6W       0.358500
     62 H16         49.7910     4.2180    82.8040 ha         1 R6W       0.123000
     63 H17         49.5010     1.6610    79.3240 ha         1 R6W       0.111000
     64 H18         50.4330     3.6840    80.4540 ha         1 R6W       0.112500
     65 H19         47.6380    -0.3440    86.2990 hn         1 R6W       0.422000
     66 H21         44.8850     6.7540    83.5550 ho         1 R6W       0.467000
     67 H22         45.7440     0.7490    88.2850 h1         1 R6W       0.030700
     68 H23         45.6500    -0.8660    87.5590 h1         1 R6W       0.030700
     69 H24         47.3920    -2.6400    88.2020 hc         1 R6W       0.041450
     70 H25         48.7210    -1.6290    87.6330 hc         1 R6W       0.041450
     71 H26         49.0840    -4.4380    88.8820 hc         1 R6W       0.045200
     72 H27         50.4290    -3.4380    88.3490 hc         1 R6W       0.045200
     73 H28         59.0600    -4.6990    95.8640 ha         1 R6W       0.136000
     74 H29         57.8160    -4.2430    97.9980 ha         1 R6W       0.132500
     75 H30         54.1060    -3.8860    95.7750 ha         1 R6W       0.123000
     76 H31         54.6630    -5.2190    93.0690 h1         1 R6W       0.063700
     77 H32         56.7400    -4.7400    91.4280 hn         1 R6W       0.339000
     78 H33         52.7170    -1.0250    91.4840 hn         1 R6W       0.358500
     79 H34         57.4800    -2.0430    93.8600 ha         1 R6W       0.123000
     80 H35         54.2430     1.2580    91.9370 ha         1 R6W       0.114500
     81 H36         56.4300     2.0410    92.8840 ha         1 R6W       0.111000
     82 H37         58.0380     0.3870    93.8410 ha         1 R6W       0.112500
     83 H38         52.0670    -4.0860    92.6900 h1         1 R6W       0.042700
     84 H39         53.1410    -4.7760    91.4610 h1         1 R6W       0.042700
     85 H40         52.3310    -3.1890    89.8850 hn         1 R6W       0.422000
     86 H42         54.2820    -3.6470    97.9890 ho         1 R6W       0.467000
     87 C20         46.2510     0.9610    85.5820 c3         1 R6W       0.219500
     88 O50         55.2310    -3.7860    98.1940 oh         1 R6W      -0.530600
     89 H4          45.6580     1.8180    85.9290 h1         1 R6W       0.042700
     90 H5          45.5420     0.1950    85.2380 h1         1 R6W       0.042700
@<TRIPOS>BOND
     1     1     2 ar  
     2     1    12 ar  
     3     1    49 1   
     4     2     3 ar  
     5     2     4 1   
     6     3    10 ar  
     7     3    14 1   
     8     4    13 1   
     9     4    16 1   
    10     4    50 1   
    11     5    16 1   
    12     5    19 ar  
    13     5    20 ar  
    14     6    19 ar  
    15     6    21 ar  
    16     6    51 1   
    17     7    25 1   
    18     7    26 1   
    19     7    52 1   
    20     7    53 1   
    21     8    26 1   
    22     8    27 1   
    23     8    54 1   
    24     8    55 1   
    25     9    27 1   
    26     9    48 1   
    27     9    56 1   
    28     9    57 1   
    29    10    11 ar  
    30    10    58 1   
    31    11    12 ar  
    32    11    59 1   
    33    12    24 1   
    34    13    14 1   
    35    13    60 1   
    36    14    15 2   
    37    16    17 2   
    38    17    18 1   
    39    17    87 1   
    40    18    19 1   
    41    18    61 1   
    42    20    22 ar  
    43    20    62 1   
    44    21    22 ar  
    45    21    63 1   
    46    22    64 1   
    47    23    25 1   
    48    23    65 1   
    49    23    87 1   
    50    24    66 1   
    51    25    67 1   
    52    25    68 1   
    53    26    69 1   
    54    26    70 1   
    55    27    71 1   
    56    27    72 1   
    57    28    29 ar  
    58    28    33 ar  
    59    28    73 1   
    60    29    30 ar  
    61    29    74 1   
    62    30    31 ar  
    63    30    88 1   
    64    31    32 ar  
    65    31    75 1   
    66    32    33 ar  
    67    32    34 1   
    68    33    36 1   
    69    34    35 1   
    70    34    38 1   
    71    34    76 1   
    72    35    36 1   
    73    35    77 1   
    74    36    37 2   
    75    38    39 2   
    76    38    42 1   
    77    39    40 1   
    78    39    47 1   
    79    40    41 1   
    80    40    78 1   
    81    41    42 ar  
    82    41    44 ar  
    83    42    43 ar  
    84    43    46 ar  
    85    43    79 1   
    86    44    45 ar  
    87    44    80 1   
    88    45    46 ar  
    89    45    81 1   
    90    46    82 1   
    91    47    48 1   
    92    47    83 1   
    93    47    84 1   
    94    48    85 1   
    95    86    88 1   
    96    87    89 1   
    97    87    90 1   
@<TRIPOS>SUBSTRUCTURE
     1 R6W         1 TEMP              0 ****  ****    0 ROOT
