@<TRIPOS>MOLECULE
R6Z
   39    42     1     0     0
SMALL
No Charge or Current Charge


@<TRIPOS>ATOM
      1 C02        -11.6440    50.7140    34.4710 c          1 R6Z       0.621700
      2 C03        -10.1740    50.6100    34.1060 ca         1 R6Z      -0.163600
      3 C04         -9.2790    50.0250    35.0280 ca         1 R6Z       0.009000
      4 C05         -7.9050    49.9110    34.7350 ca         1 R6Z      -0.205300
      5 C06         -6.9510    49.2620    35.7460 c3         1 R6Z       0.362300
      6 C10         -7.4230    50.3740    33.4940 ca         1 R6Z      -0.029000
      7 C11         -8.2940    50.9630    32.5540 ca         1 R6Z      -0.149500
      8 C12         -7.7950    51.4510    31.2590 cc         1 R6Z       0.449000
      9 C17         -9.6660    51.0790    32.8700 ca         1 R6Z      -0.016000
     10 C19        -13.8710    51.5630    33.4890 ca         1 R6Z      -0.028000
     11 C20        -14.3700    52.2850    32.3870 ca         1 R6Z      -0.147000
     12 C21        -15.7470    52.5870    32.2670 ca         1 R6Z      -0.117500
     13 C22        -16.2670    53.3430    31.1160 cc         1 R6Z       0.455000
     14 C27        -16.6260    52.1450    33.2790 ca         1 R6Z      -0.075000
     15 C28        -16.1390    51.4210    34.3790 ca         1 R6Z      -0.090000
     16 C29        -14.7700    51.1290    34.4870 ca         1 R6Z      -0.098000
     17 F07         -5.6930    49.7530    35.6570 f          1 R6Z      -0.106333
     18 F08         -6.8680    47.9270    35.5530 f          1 R6Z      -0.106333
     19 F09         -7.3480    49.4530    37.0250 f          1 R6Z      -0.106333
     20 N13         -6.5030    51.4120    30.8190 na         1 R6Z      -0.207700
     21 N14         -6.4060    51.9500    29.5770 nc         1 R6Z      -0.188800
     22 N15         -7.6270    52.3050    29.2810 nd         1 R6Z      -0.033000
     23 N16         -8.5030    52.0100    30.2980 nd         1 R6Z      -0.389000
     24 N18        -12.4710    51.3060    33.5210 ns         1 R6Z      -0.143000
     25 N23        -15.5350    53.8290    30.0710 na         1 R6Z      -0.212700
     26 N24        -16.3350    54.4770    29.1880 nc         1 R6Z      -0.201800
     27 N25        -17.5310    54.3780    29.7010 nd         1 R6Z      -0.039000
     28 N26        -17.5200    53.6850    30.8890 nd         1 R6Z      -0.383000
     29 O01        -12.0540    50.2970    35.5480 o          1 R6Z      -0.561100
     30 H1          -9.6550    49.6530    35.9800 ha         1 R6Z       0.161000
     31 H2          -6.3650    50.2680    33.2640 ha         1 R6Z       0.128000
     32 H3         -10.3290    51.5340    32.1370 ha         1 R6Z       0.149000
     33 H4         -13.6730    52.6140    31.6200 ha         1 R6Z       0.105000
     34 H5         -17.6910    52.3590    33.2180 ha         1 R6Z       0.147000
     35 H6         -16.8270    51.0840    35.1510 ha         1 R6Z       0.128000
     36 H7         -14.4350    50.5610    35.3490 ha         1 R6Z       0.147000
     37 H8          -5.6990    51.0450    31.3120 hn         1 R6Z       0.392000
     38 H9         -11.9880    51.6150    32.6900 hn         1 R6Z       0.157000
     39 H10        -14.5360    53.7410    29.9360 hn         1 R6Z       0.386000
@<TRIPOS>BOND
     1     1     2 1   
     2     1    24 1   
     3     1    29 2   
     4     2     3 ar  
     5     2     9 ar  
     6     3     4 ar  
     7     3    30 1   
     8     4     5 1   
     9     4     6 ar  
    10     5    17 1   
    11     5    18 1   
    12     5    19 1   
    13     6     7 ar  
    14     6    31 1   
    15     7     8 1   
    16     7     9 ar  
    17     8    20 1   
    18     8    23 2   
    19     9    32 1   
    20    10    11 ar  
    21    10    16 ar  
    22    10    24 1   
    23    11    12 ar  
    24    11    33 1   
    25    12    13 1   
    26    12    14 ar  
    27    13    25 1   
    28    13    28 2   
    29    14    15 ar  
    30    14    34 1   
    31    15    16 ar  
    32    15    35 1   
    33    16    36 1   
    34    20    21 1   
    35    20    37 1   
    36    21    22 2   
    37    22    23 1   
    38    24    38 1   
    39    25    26 1   
    40    25    39 1   
    41    26    27 2   
    42    27    28 1   
@<TRIPOS>SUBSTRUCTURE
     1 R6Z         1 TEMP              0 ****  ****    0 ROOT
