@<TRIPOS>MOLECULE
R6Z
   39    42     1     0     0
SMALL
bcc


@<TRIPOS>ATOM
      1 C02        -11.6870    50.5440    34.1190 c          1 R6Z       0.688700
      2 C03        -10.2080    50.5780    33.8910 ca         1 R6Z      -0.163600
      3 C04         -9.3840    50.4710    35.0080 ca         1 R6Z      -0.009000
      4 C05         -8.0080    50.4890    34.8540 ca         1 R6Z      -0.205300
      5 C06         -7.1200    50.3530    36.0550 c3         1 R6Z       0.726200
      6 C10         -7.4410    50.5820    33.5910 ca         1 R6Z      -0.047000
      7 C11         -8.2610    50.6640    32.4730 ca         1 R6Z      -0.149500
      8 C12         -7.7070    50.7550    31.1280 cc         1 R6Z       0.449000
      9 C17         -9.6450    50.6670    32.6270 ca         1 R6Z      -0.034000
     10 C19        -13.8170    51.3310    33.1530 ca         1 R6Z       0.064600
     11 C20        -14.3270    52.4380    32.4790 ca         1 R6Z      -0.165000
     12 C21        -15.6980    52.6350    32.3770 ca         1 R6Z      -0.117500
     13 C22        -16.2380    53.7920    31.6740 cc         1 R6Z       0.455000
     14 C27        -16.5770    51.7260    32.9620 ca         1 R6Z      -0.093000
     15 C28        -16.0650    50.6250    33.6250 ca         1 R6Z      -0.108000
     16 C29        -14.6970    50.4130    33.7240 ca         1 R6Z      -0.116000
     17 F07         -5.9590    50.9950    35.8930 f          1 R6Z      -0.227633
     18 F08         -6.8260    49.0700    36.2990 f          1 R6Z      -0.227633
     19 F09         -7.6920    50.8400    37.1590 f          1 R6Z      -0.227633
     20 N13         -6.4270    50.6120    30.7740 na         1 R6Z      -0.157400
     21 N14         -6.3220    50.7660    29.4670 nc         1 R6Z      -0.188800
     22 N15         -7.4990    50.9940    29.0350 nd         1 R6Z      -0.033000
     23 N16         -8.3830    50.9960    30.0290 nd         1 R6Z      -0.389000
     24 N18        -12.4250    51.1910    33.1840 ns         1 R6Z      -0.469100
     25 N23        -15.5730    54.6180    30.8620 na         1 R6Z      -0.162400
     26 N24        -16.4000    55.5450    30.4140 nc         1 R6Z      -0.201800
     27 N25        -17.5360    55.2940    30.9340 nd         1 R6Z      -0.039000
     28 N26        -17.4790    54.2210    31.7180 nd         1 R6Z      -0.383000
     29 O01        -12.1550    49.9810    35.0900 o          1 R6Z      -0.561100
     30 H1          -9.8330    50.3850    35.9880 ha         1 R6Z       0.179000
     31 H2          -6.3650    50.5940    33.4830 ha         1 R6Z       0.146000
     32 H3         -10.2650    50.7110    31.7410 ha         1 R6Z       0.167000
     33 H4         -13.6320    53.1500    32.0480 ha         1 R6Z       0.123000
     34 H5         -17.6450    51.8740    32.8880 ha         1 R6Z       0.165000
     35 H6         -16.7400    49.9070    34.0700 ha         1 R6Z       0.146000
     36 H7         -14.3350    49.5330    34.2310 ha         1 R6Z       0.165000
     37 H8          -5.6070    50.4060    31.3280 hn         1 R6Z       0.341700
     38 H9         -11.9270    51.7630    32.5190 hn         1 R6Z       0.323500
     39 H10        -14.6090    54.6090    30.5590 hn         1 R6Z       0.335700
@<TRIPOS>BOND
     1     1     2 1   
     2     1    24 1   
     3     1    29 2   
     4     2     3 ar  
     5     2     9 ar  
     6     3     4 ar  
     7     3    30 1   
     8     4     5 1   
     9     4     6 ar  
    10     5    17 1   
    11     5    18 1   
    12     5    19 1   
    13     6     7 ar  
    14     6    31 1   
    15     7     8 1   
    16     7     9 ar  
    17     8    20 1   
    18     8    23 2   
    19     9    32 1   
    20    10    11 ar  
    21    10    16 ar  
    22    10    24 1   
    23    11    12 ar  
    24    11    33 1   
    25    12    13 1   
    26    12    14 ar  
    27    13    25 1   
    28    13    28 2   
    29    14    15 ar  
    30    14    34 1   
    31    15    16 ar  
    32    15    35 1   
    33    16    36 1   
    34    20    21 1   
    35    20    37 1   
    36    21    22 2   
    37    22    23 1   
    38    24    38 1   
    39    25    26 1   
    40    25    39 1   
    41    26    27 2   
    42    27    28 1   
@<TRIPOS>SUBSTRUCTURE
     1 R6Z         1 TEMP              0 ****  ****    0 ROOT
