@<TRIPOS>MOLECULE
R70
   48    51     1     0     0
SMALL
bcc


@<TRIPOS>ATOM
      1 N           -2.2960     2.7830    -0.0150 ns         1 R70      -0.625500
      2 C           -6.7300     0.1920    -1.4380 c3         1 R70       0.125700
      3 C1          -5.0870    -0.6860     0.0320 ca         1 R70       0.172100
      4 C10         -3.3550     2.0110     0.4440 c          1 R70       0.737700
      5 C11          0.3880    -0.6310    -0.6110 ca         1 R70       0.190600
      6 C12          1.1660     0.0570     0.3200 ca         1 R70      -0.177000
      7 C13          2.5350    -0.1250     0.3440 ca         1 R70      -0.051500
      8 C14          3.1590    -1.0220    -0.5250 ca         1 R70      -0.194600
      9 C15          2.3630    -1.7450    -1.4180 ca         1 R70      -0.051500
     10 C16          1.0010    -1.5420    -1.4750 ca         1 R70      -0.177000
     11 C17          4.6130    -1.2960    -0.4740 c          1 R70       0.598300
     12 C18          5.5410    -0.2410     0.0180 ca         1 R70      -0.168600
     13 C19          6.6970    -0.6260     0.6990 ca         1 R70      -0.085500
     14 C2          -5.8900    -1.7610     0.4060 ca         1 R70      -0.220000
     15 C20          7.6060     0.3270     1.1260 ca         1 R70      -0.141000
     16 C21          7.3860     1.6720     0.8520 ca         1 R70      -0.106000
     17 C22          6.2500     2.0610     0.1550 ca         1 R70      -0.141000
     18 C23          5.3250     1.1100    -0.2520 ca         1 R70      -0.085500
     19 C3          -5.4180    -2.6910     1.3240 ca         1 R70      -0.078000
     20 C4          -4.1520    -2.5690     1.8750 ca         1 R70      -0.170000
     21 C5          -3.3590    -1.4910     1.5090 ca         1 R70      -0.081000
     22 C6          -3.8120    -0.5380     0.6020 ca         1 R70      -0.078800
     23 C7          -2.9700     0.5990     0.2390 cc         1 R70      -0.179400
     24 C8          -1.7150     0.5820    -0.2530 cd         1 R70       0.099800
     25 C9          -1.2760     2.0080    -0.4900 c          1 R70       0.708700
     26 N1          -0.9920    -0.4850    -0.6710 nu         1 R70      -0.623400
     27 O1          -4.3590     2.4460     0.9470 o          1 R70      -0.551500
     28 O2          -0.2700     2.3850    -1.0310 o          1 R70      -0.555500
     29 O3           5.0530    -2.3730    -0.8320 o          1 R70      -0.524100
     30 H1          -2.2840     3.7930    -0.0090 hn         1 R70       0.350500
     31 H2          -6.9010    -0.7310    -2.0000 h1         1 R70       0.043033
     32 H3          -7.5080     0.2930    -0.6780 h1         1 R70       0.043033
     33 H4          -6.7980     1.0340    -2.1220 h1         1 R70       0.043033
     34 H5           0.7060     0.7130     1.0480 ha         1 R70       0.140000
     35 H6           3.1140     0.4070     1.0870 ha         1 R70       0.146500
     36 H7           2.8200    -2.4550    -2.0950 ha         1 R70       0.146500
     37 H8           0.4000    -2.0840    -2.1950 ha         1 R70       0.140000
     38 H9           6.8780    -1.6730     0.9060 ha         1 R70       0.144000
     39 H10         -6.8790    -1.8930    -0.0100 ha         1 R70       0.138000
     40 H11          8.4910     0.0220     1.6690 ha         1 R70       0.135000
     41 H12          8.1020     2.4160     1.1780 ha         1 R70       0.132000
     42 H13          6.0810     3.1050    -0.0720 ha         1 R70       0.135000
     43 H14          4.4480     1.4240    -0.8020 ha         1 R70       0.144000
     44 H15         -6.0550    -3.5190     1.6050 ha         1 R70       0.132000
     45 H16         -3.7880    -3.2960     2.5870 ha         1 R70       0.138000
     46 H17         -2.3760    -1.3710     1.9480 ha         1 R70       0.135000
     47 H18         -1.5190    -1.3160    -0.9000 hn         1 R70       0.453800
     48 O           -5.4340     0.2370    -0.8760 os         1 R70      -0.308900
@<TRIPOS>BOND
     1     1     4 1   
     2     1    25 1   
     3     1    30 1   
     4     2    31 1   
     5     2    32 1   
     6     2    33 1   
     7     2    48 1   
     8     3    14 ar  
     9     3    22 ar  
    10     3    48 1   
    11     4    23 1   
    12     4    27 2   
    13     5     6 ar  
    14     5    10 ar  
    15     5    26 1   
    16     6     7 ar  
    17     6    34 1   
    18     7     8 ar  
    19     7    35 1   
    20     8     9 ar  
    21     8    11 1   
    22     9    10 ar  
    23     9    36 1   
    24    10    37 1   
    25    11    12 1   
    26    11    29 2   
    27    12    13 ar  
    28    12    18 ar  
    29    13    15 ar  
    30    13    38 1   
    31    14    19 ar  
    32    14    39 1   
    33    15    16 ar  
    34    15    40 1   
    35    16    17 ar  
    36    16    41 1   
    37    17    18 ar  
    38    17    42 1   
    39    18    43 1   
    40    19    20 ar  
    41    19    44 1   
    42    20    21 ar  
    43    20    45 1   
    44    21    22 ar  
    45    21    46 1   
    46    22    23 1   
    47    23    24 2   
    48    24    25 1   
    49    24    26 1   
    50    25    28 2   
    51    26    47 1   
@<TRIPOS>SUBSTRUCTURE
     1 R70         1 TEMP              0 ****  ****    0 ROOT
