@<TRIPOS>MOLECULE
R70
   48    51     1     0     0
SMALL
No Charge or Current Charge


@<TRIPOS>ATOM
      1 N           -2.5000     2.9210     0.4880 ns         1 R70      -0.491500
      2 C           -6.5150     0.1380    -1.9630 c3         1 R70       0.148900
      3 C1          -5.0290    -0.6860    -0.1670 ca         1 R70       0.172100
      4 C10         -3.6030     2.1700     0.7380 c          1 R70       0.595200
      5 C11          0.3390    -0.5580    -0.1430 ca         1 R70       0.329000
      6 C12          1.2430     0.1800     0.6380 ca         1 R70      -0.159000
      7 C13          2.6190    -0.1020     0.5970 ca         1 R70      -0.033500
      8 C14          3.1110    -1.1340    -0.2320 ca         1 R70      -0.194600
      9 C15          2.1950    -1.8970    -0.9860 ca         1 R70      -0.033500
     10 C16          0.8200    -1.6090    -0.9380 ca         1 R70      -0.159000
     11 C17          4.5850    -1.4640    -0.2800 c          1 R70       0.598300
     12 C18          5.5980    -0.3560    -0.0950 ca         1 R70      -0.168600
     13 C19          6.8480    -0.6380     0.4990 ca         1 R70      -0.067500
     14 C2          -5.7540    -1.8930    -0.0350 ca         1 R70      -0.202000
     15 C20          7.8040     0.3780     0.6660 ca         1 R70      -0.123000
     16 C21          7.5280     1.6850     0.2320 ca         1 R70      -0.088000
     17 C22          6.2950     1.9720    -0.3760 ca         1 R70      -0.123000
     18 C23          5.3360     0.9590    -0.5440 ca         1 R70      -0.067500
     19 C3          -5.3570    -2.8580     0.9050 ca         1 R70      -0.060000
     20 C4          -4.2360    -2.6270     1.7170 ca         1 R70      -0.152000
     21 C5          -3.5110    -1.4310     1.5930 ca         1 R70      -0.063000
     22 C6          -3.8990    -0.4570     0.6520 ca         1 R70      -0.078800
     23 C7          -3.1340     0.7890     0.5420 cc         1 R70      -0.179400
     24 C8          -1.7990     0.8110     0.2050 cd         1 R70       0.099800
     25 C9          -1.3670     2.2520     0.1480 c          1 R70       0.566200
     26 N1          -1.0350    -0.3110    -0.1050 nu         1 R70      -0.817000
     27 O1          -4.7040     2.5860     1.0590 o          1 R70      -0.476000
     28 O2          -0.2950     2.7570    -0.1510 o          1 R70      -0.480000
     29 O3           4.9540    -2.6180    -0.4670 o          1 R70      -0.524100
     30 H1          -2.5250     3.9280     0.5360 hn         1 R70       0.350500
     31 H2          -6.4070    -0.7440    -2.6060 h1         1 R70       0.043033
     32 H3          -7.4410     0.0420    -1.3820 h1         1 R70       0.043033
     33 H4          -6.6100     1.0200    -2.6090 h1         1 R70       0.043033
     34 H5           0.8820     0.9580     1.3020 ha         1 R70       0.122000
     35 H6           3.2950     0.4720     1.2270 ha         1 R70       0.128500
     36 H7           2.5470    -2.7120    -1.6170 ha         1 R70       0.128500
     37 H8           0.1300    -2.2010    -1.5310 ha         1 R70       0.122000
     38 H9           7.0770    -1.6470     0.8400 ha         1 R70       0.126000
     39 H10         -6.6230    -2.1000    -0.6520 ha         1 R70       0.120000
     40 H11          8.7610     0.1520     1.1310 ha         1 R70       0.117000
     41 H12          8.2690     2.4700     0.3600 ha         1 R70       0.114000
     42 H13          6.0840     2.9820    -0.7230 ha         1 R70       0.117000
     43 H14          4.3960     1.1990    -1.0370 ha         1 R70       0.126000
     44 H15         -5.9170    -3.7860     1.0040 ha         1 R70       0.114000
     45 H16         -3.9300    -3.3740     2.4460 ha         1 R70       0.120000
     46 H17         -2.6470    -1.2570     2.2310 ha         1 R70       0.117000
     47 H18         -1.6020    -1.1240    -0.3520 hn         1 R70       0.509000
     48 O           -5.3790     0.2800    -1.0930 os         1 R70      -0.332100
@<TRIPOS>BOND
     1     1     4 1   
     2     1    25 1   
     3     1    30 1   
     4     2    31 1   
     5     2    32 1   
     6     2    33 1   
     7     2    48 1   
     8     3    14 ar  
     9     3    22 ar  
    10     3    48 1   
    11     4    23 1   
    12     4    27 2   
    13     5     6 ar  
    14     5    10 ar  
    15     5    26 1   
    16     6     7 ar  
    17     6    34 1   
    18     7     8 ar  
    19     7    35 1   
    20     8     9 ar  
    21     8    11 1   
    22     9    10 ar  
    23     9    36 1   
    24    10    37 1   
    25    11    12 1   
    26    11    29 2   
    27    12    13 ar  
    28    12    18 ar  
    29    13    15 ar  
    30    13    38 1   
    31    14    19 ar  
    32    14    39 1   
    33    15    16 ar  
    34    15    40 1   
    35    16    17 ar  
    36    16    41 1   
    37    17    18 ar  
    38    17    42 1   
    39    18    43 1   
    40    19    20 ar  
    41    19    44 1   
    42    20    21 ar  
    43    20    45 1   
    44    21    22 ar  
    45    21    46 1   
    46    22    23 1   
    47    23    24 2   
    48    24    25 1   
    49    24    26 1   
    50    25    28 2   
    51    26    47 1   
@<TRIPOS>SUBSTRUCTURE
     1 R70         1 TEMP              0 ****  ****    0 ROOT
