@<TRIPOS>MOLECULE
R72
   83    87     1     0     0
SMALL
bcc


@<TRIPOS>ATOM
      1 C18        -43.8220    35.9700    25.1720 c6         1 R72       0.117800
      2 C14        -44.8540    31.4880    24.3220 ca         1 R72      -0.255600
      3 C11        -43.7140    29.4060    23.8690 ca         1 R72      -0.155000
      4 C17        -43.9030    34.7130    26.0570 c3         1 R72       0.079000
      5 C10        -45.7200    31.2010    23.2660 ca         1 R72      -0.047000
      6 C15        -45.0660    32.7610    25.0720 c          1 R72       0.679700
      7 C19        -45.0410    36.1180    24.2600 c6         1 R72      -0.070400
      8 C22        -42.5650    35.9290    24.2950 c6         1 R72       0.177800
      9 C20        -44.8940    37.2960    23.2970 c6         1 R72      -0.105400
     10 C24        -41.7890    38.2090    23.8900 ca         1 R72       0.738200
     11 C26        -40.5020    39.1680    25.5020 ca         1 R72       0.723900
     12 C02        -42.9750    24.1260    23.3760 c6         1 R72      -0.048000
     13 C03        -42.0690    23.2920    24.2780 c3         1 R72      -0.083100
     14 C04        -42.1160    24.9820    22.4370 c6         1 R72      -0.068400
     15 C05        -42.9280    26.0050    21.6600 c6         1 R72       0.175300
     16 C08        -44.5510    29.1560    22.7940 ca         1 R72      -0.027300
     17 C09        -45.5740    30.0600    22.5040 ca         1 R72      -0.179000
     18 C12        -43.8560    30.5580    24.6390 ca         1 R72       0.169100
     19 C21        -43.5790    37.2080    22.5280 c6         1 R72       0.211800
     20 C28        -40.8700    40.3980    23.6510 ca         1 R72       0.736200
     21 C30        -39.9980    42.7040    23.4690 c3         1 R72       0.278100
     22 C31        -40.9340    43.6040    24.2400 ca         1 R72      -0.123300
     23 C32        -41.0820    43.4790    25.6200 ca         1 R72      -0.109500
     24 C33        -41.9720    44.2900    26.3110 ca         1 R72      -0.133500
     25 C34        -42.7280    45.2370    25.6320 ca         1 R72      -0.119000
     26 C35        -42.5840    45.3720    24.2570 ca         1 R72      -0.133500
     27 C36        -41.6920    44.5600    23.5690 ca         1 R72      -0.109500
     28 C37        -41.6440    39.3620    23.1210 ca         1 R72      -0.503600
     29 C40        -44.5690    26.1110    23.4130 c6         1 R72       0.175300
     30 C41        -43.8160    25.0790    24.2360 c6         1 R72      -0.068400
     31 N06        -43.6610    26.8670    22.5690 n3         1 R72      -0.734600
     32 N16        -43.9360    33.4570    25.3410 ns         1 R72      -0.588900
     33 N23        -42.4650    37.1090    23.4580 nh         1 R72      -0.761300
     34 N25        -41.2110    38.1290    25.1080 nb         1 R72      -0.849000
     35 N27        -40.2900    40.2980    24.8600 nb         1 R72      -0.811000
     36 N29        -40.6500    41.5240    22.9430 nu         1 R72      -0.866900
     37 O13        -43.0060    30.6870    25.6780 oh         1 R72      -0.500100
     38 O38        -43.7820    37.0840    26.0430 oh         1 R72      -0.604800
     39 O39        -46.1790    33.1330    25.4050 o          1 R72      -0.580100
     40 H1         -42.9430    28.6870    24.1190 ha         1 R72       0.170000
     41 H2         -44.7890    34.7780    26.6870 h1         1 R72       0.069200
     42 H3         -43.0320    34.7000    26.7180 h1         1 R72       0.069200
     43 H4         -46.5110    31.9030    23.0340 ha         1 R72       0.145000
     44 H5         -45.9470    36.2180    24.8620 hc         1 R72       0.057700
     45 H6         -45.1520    35.2010    23.6750 hc         1 R72       0.057700
     46 H7         -42.6120    35.0620    23.6290 h1         1 R72       0.066200
     47 H8         -41.6640    35.8210    24.8990 h1         1 R72       0.066200
     48 H9         -44.9280    38.2430    23.8430 hc         1 R72       0.056700
     49 H10        -45.7270    37.3050    22.5920 hc         1 R72       0.056700
     50 H11        -40.0460    39.0840    26.4840 h5         1 R72       0.040100
     51 H12        -44.4810    22.5670    23.2460 hc         1 R72       0.032867
     52 H13        -44.5540    23.7010    21.9040 hc         1 R72       0.032867
     53 H14        -43.2700    22.5030    21.9640 hc         1 R72       0.032867
     54 H15        -42.6540    22.6740    24.9630 hc         1 R72       0.032867
     55 H16        -41.4340    22.6240    23.6910 hc         1 R72       0.032867
     56 H17        -41.4160    23.9290    24.8790 hc         1 R72       0.032867
     57 H18        -41.5710    24.3410    21.7380 hc         1 R72       0.047200
     58 H19        -41.3670    25.5170    23.0310 hc         1 R72       0.047200
     59 H20        -42.2520    26.6250    21.0650 h1         1 R72       0.031200
     60 H21        -43.5960    25.4980    20.9420 h1         1 R72       0.031200
     61 H22        -43.6910    28.2910    21.0710 h1         1 R72       0.041200
     62 H23        -45.2800    27.6600    21.4430 h1         1 R72       0.041200
     63 H24        -46.2510    29.8710    21.6810 ha         1 R72       0.135000
     64 H25        -43.5720    36.3150    21.8980 h1         1 R72       0.054200
     65 H26        -43.4550    38.0590    21.8640 h1         1 R72       0.054200
     66 H27        -39.5850    43.2470    22.6180 h1         1 R72       0.065200
     67 H28        -39.1590    42.3970    24.0910 h1         1 R72       0.065200
     68 H29        -40.5000    42.7380    26.1530 ha         1 R72       0.134500
     69 H30        -42.0760    44.1830    27.3840 ha         1 R72       0.131000
     70 H31        -43.4200    45.8690    26.1720 ha         1 R72       0.130000
     71 H32        -43.1620    46.1130    23.7190 ha         1 R72       0.131000
     72 H33        -41.5790    44.6780    22.4970 ha         1 R72       0.134500
     73 H34        -42.0790    39.4680    22.1380 ha         1 R72       0.145000
     74 H35        -45.0830    26.8040    24.0840 h1         1 R72       0.031200
     75 H36        -45.3560    25.6250    22.8100 h1         1 R72       0.031200
     76 H37        -44.5240    24.5120    24.8480 hc         1 R72       0.047200
     77 H38        -43.1530    25.6100    24.9280 hc         1 R72       0.047200
     78 H40        -43.0900    33.1860    24.8630 hn         1 R72       0.311500
     79 H41        -41.1730    41.6360    22.0900 hn         1 R72       0.431800
     80 H42        -43.2090    31.4670    26.2100 ho         1 R72       0.436000
     81 H43        -42.8600    37.3630    26.1460 ho         1 R72       0.434000
     82 C07        -44.3230    27.9600    21.9020 c3         1 R72       0.216100
     83 C01        -43.8720    23.1790    22.5760 c3         1 R72      -0.083100
@<TRIPOS>BOND
     1     1     4 1   
     2     1     7 1   
     3     1     8 1   
     4     1    38 1   
     5     2     5 ar  
     6     2     6 1   
     7     2    18 ar  
     8     3    16 ar  
     9     3    18 ar  
    10     3    40 1   
    11     4    32 1   
    12     4    41 1   
    13     4    42 1   
    14     5    17 ar  
    15     5    43 1   
    16     6    32 1   
    17     6    39 2   
    18     7     9 1   
    19     7    44 1   
    20     7    45 1   
    21     8    33 1   
    22     8    46 1   
    23     8    47 1   
    24     9    19 1   
    25     9    48 1   
    26     9    49 1   
    27    10    28 ar  
    28    10    33 1   
    29    10    34 ar  
    30    11    34 ar  
    31    11    35 ar  
    32    11    50 1   
    33    12    13 1   
    34    12    14 1   
    35    12    30 1   
    36    12    83 1   
    37    13    54 1   
    38    13    55 1   
    39    13    56 1   
    40    14    15 1   
    41    14    57 1   
    42    14    58 1   
    43    15    31 1   
    44    15    59 1   
    45    15    60 1   
    46    16    17 ar  
    47    16    82 1   
    48    17    63 1   
    49    18    37 1   
    50    19    33 1   
    51    19    64 1   
    52    19    65 1   
    53    20    28 ar  
    54    20    35 ar  
    55    20    36 1   
    56    21    22 1   
    57    21    36 1   
    58    21    66 1   
    59    21    67 1   
    60    22    23 ar  
    61    22    27 ar  
    62    23    24 ar  
    63    23    68 1   
    64    24    25 ar  
    65    24    69 1   
    66    25    26 ar  
    67    25    70 1   
    68    26    27 ar  
    69    26    71 1   
    70    27    72 1   
    71    28    73 1   
    72    29    30 1   
    73    29    31 1   
    74    29    74 1   
    75    29    75 1   
    76    30    76 1   
    77    30    77 1   
    78    31    82 1   
    79    32    78 1   
    80    36    79 1   
    81    37    80 1   
    82    38    81 1   
    83    51    83 1   
    84    52    83 1   
    85    53    83 1   
    86    61    82 1   
    87    62    82 1   
@<TRIPOS>SUBSTRUCTURE
     1 R72         1 TEMP              0 ****  ****    0 ROOT
