@<TRIPOS>MOLECULE
R72
   83    87     1     0     0
SMALL
No Charge or Current Charge


@<TRIPOS>ATOM
      1 C18        -45.2680    35.9470    25.8290 c6         1 R72       0.141000
      2 C14        -45.3170    31.5230    24.1220 ca         1 R72      -0.255600
      3 C11        -43.5000    30.2010    23.1340 ca         1 R72      -0.137000
      4 C17        -45.3720    34.5600    26.5460 c3         1 R72       0.079000
      5 C10        -46.2340    30.6970    23.4280 ca         1 R72      -0.029000
      6 C15        -45.8920    32.6330    24.9840 c          1 R72       0.612700
      7 C19        -46.2790    36.0890    24.6510 c6         1 R72      -0.070400
      8 C22        -43.8340    36.2010    25.2710 c6         1 R72       0.177800
      9 C20        -46.1440    37.4690    23.9480 c6         1 R72      -0.105400
     10 C24        -42.5660    38.3370    24.8090 ca         1 R72       0.409900
     11 C26        -40.8850    39.1130    26.1620 ca         1 R72       0.197900
     12 C02        -42.3640    24.4890    23.2710 c6         1 R72      -0.048000
     13 C03        -41.3510    23.6500    24.1080 c3         1 R72      -0.083100
     14 C04        -41.6150    25.2330    22.1250 c6         1 R72      -0.068400
     15 C05        -42.5290    26.2310    21.3680 c6         1 R72       0.175300
     16 C08        -44.4230    29.3900    22.4550 ca         1 R72      -0.027300
     17 C09        -45.7940    29.6460    22.6080 ca         1 R72      -0.161000
     18 C12        -43.9280    31.2570    23.9600 ca         1 R72       0.169100
     19 C21        -44.6810    37.7790    23.5380 c6         1 R72       0.211800
     20 C28        -40.8190    39.7330    23.9670 ca         1 R72       0.407900
     21 C30        -39.2220    41.5060    23.0460 c3         1 R72       0.278100
     22 C31        -39.8740    42.7610    23.6200 ca         1 R72      -0.123300
     23 C32        -39.6450    43.1370    24.9590 ca         1 R72      -0.091500
     24 C33        -40.2460    44.2940    25.4850 ca         1 R72      -0.115500
     25 C34        -41.0790    45.0850    24.6750 ca         1 R72      -0.101000
     26 C35        -41.3100    44.7170    23.3390 ca         1 R72      -0.115500
     27 C36        -40.7100    43.5590    22.8130 ca         1 R72      -0.091500
     28 C37        -41.9850    39.0100    23.7240 ca         1 R72      -0.355000
     29 C40        -43.9220    26.5500    23.3730 c6         1 R72       0.175300
     30 C41        -43.0420    25.5580    24.1780 c6         1 R72      -0.068400
     31 N06        -43.1450    27.2220    22.2920 n3         1 R72      -0.734600
     32 N16        -45.0140    33.4060    25.7040 ns         1 R72      -0.521900
     33 N23        -43.7500    37.5800    24.6870 nh         1 R72      -0.761300
     34 N25        -42.0130    38.3880    26.0340 nb         1 R72      -0.323000
     35 N27        -40.2560    39.7910    25.1840 nb         1 R72      -0.285000
     36 N29        -40.2040    40.4140    22.9280 nu         1 R72      -0.922100
     37 O13        -42.9670    32.0010    24.5830 oh         1 R72      -0.539100
     38 O38        -45.5410    36.9740    26.7900 oh         1 R72      -0.667000
     39 O39        -47.0960    32.8410    25.0430 o          1 R72      -0.580100
     40 H1         -42.4390    29.9950    23.0160 ha         1 R72       0.152000
     41 H2         -46.3950    34.4320    26.9240 h1         1 R72       0.069200
     42 H3         -44.7010    34.5660    27.4140 h1         1 R72       0.069200
     43 H4         -47.3060    30.8630    23.5210 ha         1 R72       0.127000
     44 H5         -47.3070    35.9510    25.0120 hc         1 R72       0.057700
     45 H6         -46.1020    35.2960    23.9110 hc         1 R72       0.057700
     46 H7         -43.5960    35.4500    24.5030 h1         1 R72       0.066200
     47 H8         -43.1080    36.0630    26.0860 h1         1 R72       0.066200
     48 H9         -46.5080    38.2630    24.6130 hc         1 R72       0.056700
     49 H10        -46.7880    37.5000    23.0590 hc         1 R72       0.056700
     50 H11        -40.4380    39.1540    27.1530 h5         1 R72       0.040100
     51 H12        -43.9380    22.9540    23.5050 hc         1 R72       0.032867
     52 H13        -44.1810    23.9780    22.0900 hc         1 R72       0.032867
     53 H14        -42.9390    22.7260    22.0650 hc         1 R72       0.032867
     54 H15        -41.8500    23.1250    24.9320 hc         1 R72       0.032867
     55 H16        -40.8480    22.8960    23.4910 hc         1 R72       0.032867
     56 H17        -40.5730    24.2850    24.5480 hc         1 R72       0.032867
     57 H18        -41.1940    24.5100    21.4130 hc         1 R72       0.047200
     58 H19        -40.7610    25.7870    22.5390 hc         1 R72       0.047200
     59 H20        -41.9230    26.7500    20.6110 h1         1 R72       0.031200
     60 H21        -43.3090    25.6780    20.8250 h1         1 R72       0.031200
     61 H22        -43.3250    28.6860    20.7660 h1         1 R72       0.041200
     62 H23        -44.8000    27.7740    21.0790 h1         1 R72       0.041200
     63 H24        -46.5260    29.0290    22.0910 ha         1 R72       0.117000
     64 H25        -44.3890    37.1250    22.7010 h1         1 R72       0.054200
     65 H26        -44.6400    38.8170    23.1760 h1         1 R72       0.054200
     66 H27        -38.8090    41.7470    22.0560 h1         1 R72       0.065200
     67 H28        -38.3770    41.1980    23.6790 h1         1 R72       0.065200
     68 H29        -39.0030    42.5300    25.5950 ha         1 R72       0.116500
     69 H30        -40.0660    44.5770    26.5200 ha         1 R72       0.113000
     70 H31        -41.5440    45.9800    25.0820 ha         1 R72       0.112000
     71 H32        -41.9550    45.3280    22.7110 ha         1 R72       0.113000
     72 H33        -40.8960    43.2810    21.7780 ha         1 R72       0.116500
     73 H34        -42.4110    38.9660    22.7300 ha         1 R72       0.127000
     74 H35        -44.3250    27.2940    24.0760 h1         1 R72       0.031200
     75 H36        -44.7850    26.0160    22.9490 h1         1 R72       0.031200
     76 H37        -43.6530    25.0710    24.9500 hc         1 R72       0.047200
     77 H38        -42.2730    26.1310    24.7140 hc         1 R72       0.047200
     78 H40        -44.0360    33.1540    25.6040 hn         1 R72       0.311500
     79 H41        -40.6770    40.3290    22.0300 hn         1 R72       0.487000
     80 H42        -42.0870    31.6420    24.3390 ho         1 R72       0.475000
     81 H43        -45.0380    37.7420    26.4290 ho         1 R72       0.473000
     82 C07        -43.9360    28.2460    21.5660 c3         1 R72       0.216100
     83 C01        -43.4160    23.4840    22.6990 c3         1 R72      -0.083100
@<TRIPOS>BOND
     1     1     4 1   
     2     1     7 1   
     3     1     8 1   
     4     1    38 1   
     5     2     5 ar  
     6     2     6 1   
     7     2    18 ar  
     8     3    16 ar  
     9     3    18 ar  
    10     3    40 1   
    11     4    32 1   
    12     4    41 1   
    13     4    42 1   
    14     5    17 ar  
    15     5    43 1   
    16     6    32 1   
    17     6    39 2   
    18     7     9 1   
    19     7    44 1   
    20     7    45 1   
    21     8    33 1   
    22     8    46 1   
    23     8    47 1   
    24     9    19 1   
    25     9    48 1   
    26     9    49 1   
    27    10    28 ar  
    28    10    33 1   
    29    10    34 ar  
    30    11    34 ar  
    31    11    35 ar  
    32    11    50 1   
    33    12    13 1   
    34    12    14 1   
    35    12    30 1   
    36    12    83 1   
    37    13    54 1   
    38    13    55 1   
    39    13    56 1   
    40    14    15 1   
    41    14    57 1   
    42    14    58 1   
    43    15    31 1   
    44    15    59 1   
    45    15    60 1   
    46    16    17 ar  
    47    16    82 1   
    48    17    63 1   
    49    18    37 1   
    50    19    33 1   
    51    19    64 1   
    52    19    65 1   
    53    20    28 ar  
    54    20    35 ar  
    55    20    36 1   
    56    21    22 1   
    57    21    36 1   
    58    21    66 1   
    59    21    67 1   
    60    22    23 ar  
    61    22    27 ar  
    62    23    24 ar  
    63    23    68 1   
    64    24    25 ar  
    65    24    69 1   
    66    25    26 ar  
    67    25    70 1   
    68    26    27 ar  
    69    26    71 1   
    70    27    72 1   
    71    28    73 1   
    72    29    30 1   
    73    29    31 1   
    74    29    74 1   
    75    29    75 1   
    76    30    76 1   
    77    30    77 1   
    78    31    82 1   
    79    32    78 1   
    80    36    79 1   
    81    37    80 1   
    82    38    81 1   
    83    51    83 1   
    84    52    83 1   
    85    53    83 1   
    86    61    82 1   
    87    62    82 1   
@<TRIPOS>SUBSTRUCTURE
     1 R72         1 TEMP              0 ****  ****    0 ROOT
