@<TRIPOS>MOLECULE
R73
   44    47     1     0     0
SMALL
No Charge or Current Charge


@<TRIPOS>ATOM
      1 C5          -5.7840   -10.0850   -21.8350 ca         1 R73       0.243300
      2 C6          -5.0340    -9.1760   -22.6080 ca         1 R73      -0.092000
      3 C7          -4.9310    -7.8380   -22.1950 ca         1 R73      -0.086000
      4 C8          -5.5840    -7.4480   -21.0140 ca         1 R73      -0.080000
      5 C15         -9.0860    -7.8910   -16.6320 ca         1 R73      -0.142000
      6 C17        -10.2240    -9.2340   -14.9620 ca         1 R73       0.048400
      7 C20         -8.2830   -11.5840   -17.1660 cc         1 R73      -0.113000
      8 C21         -8.9870   -12.7420   -17.3030 cd         1 R73      -0.210000
      9 C22         -8.1030   -13.6890   -17.8610 cd         1 R73       0.234900
     10 C26        -11.2780    -7.7680   -13.7760 cc         1 R73       0.422800
     11 C2          -5.8990   -11.5590   -22.2720 c3         1 R73       0.269700
     12 F3          -4.7370   -12.2240   -22.0810 f          1 R73      -0.101000
     13 F4          -6.2010   -11.6700   -23.5870 f          1 R73      -0.101000
     14 N10         -6.4090    -9.7020   -20.6880 nb         1 R73      -0.642000
     15 C9          -6.3190    -8.4020   -20.2760 ca         1 R73       0.285500
     16 C11         -7.0240    -7.9860   -18.9850 c          1 R73       0.514600
     17 O12         -6.9530    -6.8460   -18.5260 o          1 R73      -0.584100
     18 N13         -7.7270    -9.0160   -18.3710 ns         1 R73      -0.131000
     19 C14         -8.5320    -9.0650   -17.2000 ca         1 R73       0.002000
     20 C16         -9.9180    -8.0250   -15.5150 ca         1 R73      -0.052200
     21 N28        -10.5790    -7.0880   -14.7790 na         1 R73      -0.178600
     22 C29        -10.5080    -5.6440   -15.0580 c3         1 R73       0.063900
     23 N25        -11.0760    -9.0990   -13.8660 nd         1 R73      -0.566100
     24 C18         -9.6990   -10.4140   -15.5030 ca         1 R73       0.003000
     25 C19         -8.8400   -10.3370   -16.6280 ca         1 R73      -0.096000
     26 N24         -7.0100   -11.8810   -17.6440 na         1 R73       0.000800
     27 N23         -6.8920   -13.1970   -18.0750 nc         1 R73      -0.511800
     28 H1          -4.5360    -9.5070   -23.5160 ha         1 R73       0.147000
     29 H2          -4.3580    -7.1180   -22.7770 ha         1 R73       0.134000
     30 H3          -5.5200    -6.4190   -20.6710 ha         1 R73       0.155000
     31 H4          -8.9000    -6.9070   -17.0520 ha         1 R73       0.149000
     32 H5         -10.0280   -12.9110   -17.0470 ha         1 R73       0.147000
     33 H6          -8.3080   -14.7220   -18.1160 h4         1 R73       0.037100
     34 H7          -7.6790    -9.8930   -18.8750 hn         1 R73       0.194000
     35 H8         -11.0960    -5.0840   -14.3200 h1         1 R73       0.053700
     36 H9          -9.4640    -5.3110   -15.0100 h1         1 R73       0.053700
     37 H10        -10.9070    -5.4430   -16.0600 h1         1 R73       0.053700
     38 H11        -12.5880    -7.8510   -12.0680 hc         1 R73       0.059367
     39 H12        -11.5490    -6.4160   -12.1290 hc         1 R73       0.059367
     40 H13        -12.9510    -6.5450   -13.2110 hc         1 R73       0.059367
     41 H14         -9.9420   -11.3710   -15.0490 ha         1 R73       0.140000
     42 H15         -6.2130   -11.2460   -17.6690 hn         1 R73       0.372000
     43 C27        -12.1400    -7.1090   -12.7380 c3         1 R73      -0.113400
     44 F1          -6.8570   -12.2430   -21.5990 f          1 R73      -0.101000
@<TRIPOS>BOND
     1     1     2 ar  
     2     1    11 1   
     3     1    14 ar  
     4     2     3 ar  
     5     2    28 1   
     6     3     4 ar  
     7     3    29 1   
     8     4    15 ar  
     9     4    30 1   
    10     5    19 ar  
    11     5    20 ar  
    12     5    31 1   
    13     6    20 ar  
    14     6    23 1   
    15     6    24 ar  
    16     7     8 2   
    17     7    25 1   
    18     7    26 1   
    19     8     9 1   
    20     8    32 1   
    21     9    27 2   
    22     9    33 1   
    23    10    21 1   
    24    10    23 2   
    25    10    43 1   
    26    11    12 1   
    27    11    13 1   
    28    11    44 1   
    29    14    15 ar  
    30    15    16 1   
    31    16    17 2   
    32    16    18 1   
    33    18    19 1   
    34    18    34 1   
    35    19    25 ar  
    36    20    21 1   
    37    21    22 1   
    38    22    35 1   
    39    22    36 1   
    40    22    37 1   
    41    24    25 ar  
    42    24    41 1   
    43    26    27 1   
    44    26    42 1   
    45    38    43 1   
    46    39    43 1   
    47    40    43 1   
@<TRIPOS>SUBSTRUCTURE
     1 R73         1 TEMP              0 ****  ****    0 ROOT
