@<TRIPOS>MOLECULE
R73
   44    47     1     0     0
SMALL
abcg2


@<TRIPOS>ATOM
      1 C5          -5.8100   -10.1270   -21.6640 ca         1 R73       0.243300
      2 C6          -5.1200    -9.2660   -22.5010 ca         1 R73      -0.092000
      3 C7          -5.1300    -7.9150   -22.1840 ca         1 R73      -0.086000
      4 C8          -5.8110    -7.4860   -21.0580 ca         1 R73      -0.080000
      5 C15         -9.1310    -7.8830   -16.7270 ca         1 R73      -0.142000
      6 C17        -10.1910    -9.2620   -14.9960 ca         1 R73       0.048400
      7 C20         -8.3590   -11.5480   -17.3040 cc         1 R73      -0.113000
      8 C21         -9.0010   -12.6530   -17.8220 cd         1 R73      -0.210000
      9 C22         -7.9660   -13.5050   -18.2370 cd         1 R73       0.234900
     10 C26        -11.1330    -7.7890   -13.7810 cc         1 R73       0.422800
     11 C2          -5.8270   -11.6180   -21.8750 c3         1 R73       0.269700
     12 F3          -5.0500   -12.2290   -20.9740 f          1 R73      -0.101000
     13 F4          -5.3820   -11.9610   -23.0840 f          1 R73      -0.101000
     14 N10         -6.4670    -9.7240   -20.5920 nb         1 R73      -0.642000
     15 C9          -6.4700    -8.4360   -20.2890 ca         1 R73       0.285500
     16 C11         -7.2130    -8.0220   -19.0490 c          1 R73       0.514600
     17 O12         -7.1630    -6.8760   -18.6420 o          1 R73      -0.584100
     18 N13         -7.8930    -9.0390   -18.4830 ns         1 R73      -0.131000
     19 C14         -8.6330    -9.0490   -17.2960 ca         1 R73       0.002000
     20 C16         -9.8920    -8.0250   -15.5770 ca         1 R73      -0.052200
     21 N28        -10.5050    -7.0980   -14.7810 na         1 R73      -0.178600
     22 C29        -10.4580    -5.6690   -14.9820 c3         1 R73       0.063900
     23 N25        -10.9670    -9.0810   -13.8780 nd         1 R73      -0.566100
     24 C18         -9.6840   -10.4200   -15.5730 ca         1 R73       0.003000
     25 C19         -8.8950   -10.3150   -16.7090 ca         1 R73      -0.096000
     26 N24         -7.0380   -11.8010   -17.4390 na         1 R73       0.000800
     27 N23         -6.7800   -12.9750   -17.9970 nc         1 R73      -0.511800
     28 H1          -4.5900    -9.6210   -23.3730 ha         1 R73       0.147000
     29 H2          -4.6060    -7.2070   -22.8110 ha         1 R73       0.134000
     30 H3          -5.8320    -6.4410   -20.7830 ha         1 R73       0.155000
     31 H4          -8.9510    -6.9150   -17.1680 ha         1 R73       0.149000
     32 H5         -10.0650   -12.8040   -17.9040 ha         1 R73       0.147000
     33 H6          -8.0440   -14.4760   -18.7020 h4         1 R73       0.037100
     34 H7          -7.8000    -9.9200   -18.9750 hn         1 R73       0.194000
     35 H8         -11.0150    -5.1660   -14.1980 h1         1 R73       0.053700
     36 H9          -9.4290    -5.3140   -14.9570 h1         1 R73       0.053700
     37 H10        -10.8990    -5.4030   -15.9430 h1         1 R73       0.053700
     38 H11        -12.3400    -7.8630   -12.0520 hc         1 R73       0.059367
     39 H12        -11.2750    -6.4550   -12.1130 hc         1 R73       0.059367
     40 H13        -12.7170    -6.5070   -13.1200 hc         1 R73       0.059367
     41 H14         -9.8800   -11.3920   -15.1380 ha         1 R73       0.140000
     42 H15         -6.2750   -11.2140   -17.1350 hn         1 R73       0.372000
     43 C27        -11.9080    -7.1130   -12.7100 c3         1 R73      -0.113400
     44 F1          -7.0560   -12.1180   -21.7390 f          1 R73      -0.101000
@<TRIPOS>BOND
     1     1     2 ar  
     2     1    11 1   
     3     1    14 ar  
     4     2     3 ar  
     5     2    28 1   
     6     3     4 ar  
     7     3    29 1   
     8     4    15 ar  
     9     4    30 1   
    10     5    19 ar  
    11     5    20 ar  
    12     5    31 1   
    13     6    20 ar  
    14     6    23 1   
    15     6    24 ar  
    16     7     8 2   
    17     7    25 1   
    18     7    26 1   
    19     8     9 1   
    20     8    32 1   
    21     9    27 2   
    22     9    33 1   
    23    10    21 1   
    24    10    23 2   
    25    10    43 1   
    26    11    12 1   
    27    11    13 1   
    28    11    44 1   
    29    14    15 ar  
    30    15    16 1   
    31    16    17 2   
    32    16    18 1   
    33    18    19 1   
    34    18    34 1   
    35    19    25 ar  
    36    20    21 1   
    37    21    22 1   
    38    22    35 1   
    39    22    36 1   
    40    22    37 1   
    41    24    25 ar  
    42    24    41 1   
    43    26    27 1   
    44    26    42 1   
    45    38    43 1   
    46    39    43 1   
    47    40    43 1   
@<TRIPOS>SUBSTRUCTURE
     1 R73         1 TEMP              0 ****  ****    0 ROOT
