@<TRIPOS>MOLECULE
R74
   45    47     1     0     0
SMALL
No Charge or Current Charge


@<TRIPOS>ATOM
      1 OB          -2.1940    -9.5390   -31.7250 o          1 R74      -0.586100
      2 CAA         -5.1530    -4.0300   -24.9750 ca         1 R74       0.059100
      3 CAB         -5.0980    -5.4270   -25.0410 ca         1 R74      -0.093000
      4 CAC         -5.3680    -6.0430   -26.2820 ca         1 R74      -0.101000
      5 CAD         -5.6810    -5.2620   -27.4230 ca         1 R74      -0.087300
      6 CAE         -5.7210    -3.8520   -27.3180 ca         1 R74      -0.073000
      7 CAF         -5.4520    -3.2720   -26.0720 ca         1 R74       0.052100
      8 CAH         -5.1560    -1.9060   -24.3560 c5         1 R74       0.373600
      9 CAJ         -5.9600    -5.9420   -28.7600 c3         1 R74      -0.105100
     10 CAK         -4.6510    -6.3380   -29.4510 c          1 R74       0.599100
     11 CAS         -4.7400    -9.6990   -33.0210 c3         1 R74       0.148300
     12 CAT         -5.1720   -11.1370   -32.7780 ca         1 R74      -0.055300
     13 CAU         -4.2430   -12.1930   -32.8130 ca         1 R74      -0.155500
     14 CAV         -4.6820   -13.5070   -32.5740 ca         1 R74       0.336900
     15 CAX         -6.8670   -12.8000   -32.2710 ca         1 R74       0.336900
     16 CAY         -6.5120   -11.4590   -32.4980 ca         1 R74      -0.155500
     17 CBB         -2.4360    -9.1850   -28.7470 c3         1 R74       0.066600
     18 CBC         -3.0350    -8.2590   -29.8290 c3         1 R74       0.040700
     19 CBD         -3.1530    -8.9970   -31.1930 c          1 R74       0.588100
     20 NAQ         -4.4070    -9.0220   -31.7670 ns         1 R74      -0.498900
     21 NAW         -5.9730   -13.8150   -32.3070 nb         1 R74      -0.663000
     22 NBE         -4.3290    -7.6760   -29.3740 ns         1 R74      -0.523900
     23 OAG         -5.4410    -1.9410   -25.8010 os         1 R74      -0.342100
     24 OAI         -4.9140    -3.2760   -23.8720 os         1 R74      -0.343100
     25 OAM         -3.9400    -5.5300   -30.0310 o          1 R74      -0.572100
     26 SAZ         -2.3150    -8.4060   -27.0620 sh         1 R74      -0.444800
     27 H2          -5.3290    -7.1280   -26.3570 ha         1 R74       0.120000
     28 H3          -5.9510    -3.2260   -28.1770 ha         1 R74       0.138000
     29 H4          -4.2690    -1.2890   -24.1720 h2         1 R74       0.064700
     30 H5          -6.0220    -1.4880   -23.8300 h2         1 R74       0.064700
     31 H6          -6.5070    -5.2570   -29.4180 hc         1 R74       0.066200
     32 H7          -6.5710    -6.8350   -28.5830 hc         1 R74       0.066200
     33 H8          -3.8740    -9.6760   -33.6970 h1         1 R74       0.064700
     34 H9          -5.5550    -9.1490   -33.5120 h1         1 R74       0.064700
     35 H10         -3.1930   -12.0050   -33.0180 ha         1 R74       0.119500
     36 H11         -3.9790   -14.3380   -32.5960 h4         1 R74       0.018100
     37 H12         -7.9000   -13.0700   -32.0530 h4         1 R74       0.018100
     38 H13         -7.2740   -10.6850   -32.4530 ha         1 R74       0.119500
     39 H14         -3.0560   -10.0870   -28.6610 h1         1 R74       0.077700
     40 H15         -1.4300    -9.5010   -29.0550 h1         1 R74       0.077700
     41 H16         -2.3230    -7.4420   -29.9980 h1         1 R74       0.119700
     42 H17         -5.1430    -8.5440   -31.2620 hn         1 R74       0.323500
     43 H18         -4.9570    -8.2610   -28.8340 hn         1 R74       0.320500
     44 H19         -1.7710    -9.4810   -26.4380 hs         1 R74       0.217800
     45 H1          -4.8530    -6.0170   -24.1620 ha         1 R74       0.136000
@<TRIPOS>BOND
     1     1    19 2   
     2     2     3 ar  
     3     2     7 ar  
     4     2    24 1   
     5     3     4 ar  
     6     3    45 1   
     7     4     5 ar  
     8     4    27 1   
     9     5     6 ar  
    10     5     9 1   
    11     6     7 ar  
    12     6    28 1   
    13     7    23 1   
    14     8    23 1   
    15     8    24 1   
    16     8    29 1   
    17     8    30 1   
    18     9    10 1   
    19     9    31 1   
    20     9    32 1   
    21    10    22 1   
    22    10    25 2   
    23    11    12 1   
    24    11    20 1   
    25    11    33 1   
    26    11    34 1   
    27    12    13 ar  
    28    12    16 ar  
    29    13    14 ar  
    30    13    35 1   
    31    14    21 ar  
    32    14    36 1   
    33    15    16 ar  
    34    15    21 ar  
    35    15    37 1   
    36    16    38 1   
    37    17    18 1   
    38    17    26 1   
    39    17    39 1   
    40    17    40 1   
    41    18    19 1   
    42    18    22 1   
    43    18    41 1   
    44    19    20 1   
    45    20    42 1   
    46    22    43 1   
    47    26    44 1   
@<TRIPOS>SUBSTRUCTURE
     1 R74         1 TEMP              0 ****  ****    0 ROOT
