@<TRIPOS>MOLECULE
R74
   45    47     1     0     0
SMALL
abcg2


@<TRIPOS>ATOM
      1 OB          -2.6080    -9.5940   -31.2420 o          1 R74      -0.586100
      2 CAA         -4.8280    -3.6030   -25.1610 ca         1 R74       0.059100
      3 CAB         -4.9730    -4.9550   -24.9680 ca         1 R74      -0.093000
      4 CAC         -5.4200    -5.7040   -26.0620 ca         1 R74      -0.101000
      5 CAD         -5.7080    -5.1150   -27.2870 ca         1 R74      -0.087300
      6 CAE         -5.5460    -3.7330   -27.4620 ca         1 R74      -0.073000
      7 CAF         -5.1100    -3.0090   -26.3810 ca         1 R74       0.052100
      8 CAH         -4.6010    -1.4060   -24.9300 c5         1 R74       0.373600
      9 CAJ         -6.1420    -5.9710   -28.4490 c3         1 R74      -0.105100
     10 CAK         -4.9180    -6.6010   -29.0820 c          1 R74       0.599100
     11 CAS         -4.9160    -9.5150   -32.7670 c3         1 R74       0.148300
     12 CAT         -4.8570   -11.0150   -32.9070 ca         1 R74      -0.055300
     13 CAU         -4.3580   -11.5960   -34.0660 ca         1 R74      -0.155500
     14 CAV         -4.3560   -12.9770   -34.1840 ca         1 R74       0.336900
     15 CAX         -5.2820   -13.2390   -32.1330 ca         1 R74       0.336900
     16 CAY         -5.3310   -11.8700   -31.9190 ca         1 R74      -0.155500
     17 CBB         -3.4610    -9.8990   -28.3940 c3         1 R74       0.066600
     18 CBC         -3.6310    -8.6760   -29.2900 c3         1 R74       0.040700
     19 CBD         -3.6280    -9.1410   -30.7480 c          1 R74       0.588100
     20 NAQ         -4.7880    -9.0540   -31.4090 ns         1 R74      -0.498900
     21 NAW         -4.8060   -13.7960   -33.2400 nb         1 R74      -0.663000
     22 NBE         -4.8040    -7.9350   -28.9000 ns         1 R74      -0.523900
     23 OAG         -4.8640    -1.6790   -26.3000 os         1 R74      -0.342100
     24 OAI         -4.4020    -2.6580   -24.2870 os         1 R74      -0.343100
     25 OAM         -4.0810    -5.9470   -29.6780 o          1 R74      -0.572100
     26 SAZ         -3.3620    -9.3510   -26.6560 sh         1 R74      -0.444800
     27 H2          -5.5440    -6.7740   -25.9430 ha         1 R74       0.120000
     28 H3          -5.7650    -3.2580   -28.4090 ha         1 R74       0.138000
     29 H4          -3.7010    -0.7980   -24.8400 h2         1 R74       0.064700
     30 H5          -5.4580    -0.8900   -24.4820 h2         1 R74       0.064700
     31 H6          -6.6440    -5.3640   -29.2040 hc         1 R74       0.066200
     32 H7          -6.8530    -6.7310   -28.1210 hc         1 R74       0.066200
     33 H8          -4.1490    -9.0590   -33.3950 h1         1 R74       0.064700
     34 H9          -5.8780    -9.1620   -33.1410 h1         1 R74       0.064700
     35 H10         -3.9650   -10.9870   -34.8710 ha         1 R74       0.119500
     36 H11         -3.9640   -13.4410   -35.0830 h4         1 R74       0.018100
     37 H12         -5.6470   -13.9160   -31.3680 h4         1 R74       0.018100
     38 H13         -5.7340   -11.4900   -30.9890 ha         1 R74       0.119500
     39 H14         -4.2980   -10.5890   -28.5200 h1         1 R74       0.077700
     40 H15         -2.5430   -10.4150   -28.6640 h1         1 R74       0.077700
     41 H16         -2.7560    -8.0310   -29.1740 h1         1 R74       0.119700
     42 H17         -5.5980    -8.6750   -30.9460 hn         1 R74       0.323500
     43 H18         -5.5340    -8.4190   -28.3990 hn         1 R74       0.320500
     44 H19         -2.9870   -10.5290   -26.1470 hs         1 R74       0.217800
     45 H1          -4.7510    -5.4230   -24.0190 ha         1 R74       0.136000
@<TRIPOS>BOND
     1     1    19 2   
     2     2     3 ar  
     3     2     7 ar  
     4     2    24 1   
     5     3     4 ar  
     6     3    45 1   
     7     4     5 ar  
     8     4    27 1   
     9     5     6 ar  
    10     5     9 1   
    11     6     7 ar  
    12     6    28 1   
    13     7    23 1   
    14     8    23 1   
    15     8    24 1   
    16     8    29 1   
    17     8    30 1   
    18     9    10 1   
    19     9    31 1   
    20     9    32 1   
    21    10    22 1   
    22    10    25 2   
    23    11    12 1   
    24    11    20 1   
    25    11    33 1   
    26    11    34 1   
    27    12    13 ar  
    28    12    16 ar  
    29    13    14 ar  
    30    13    35 1   
    31    14    21 ar  
    32    14    36 1   
    33    15    16 ar  
    34    15    21 ar  
    35    15    37 1   
    36    16    38 1   
    37    17    18 1   
    38    17    26 1   
    39    17    39 1   
    40    17    40 1   
    41    18    19 1   
    42    18    22 1   
    43    18    41 1   
    44    19    20 1   
    45    20    42 1   
    46    22    43 1   
    47    26    44 1   
@<TRIPOS>SUBSTRUCTURE
     1 R74         1 TEMP              0 ****  ****    0 ROOT
