@<TRIPOS>MOLECULE
R75
   34    36     1     0     0
SMALL
No Charge or Current Charge


@<TRIPOS>ATOM
      1 CAA        -21.9030    41.0870    56.0060 ca         1 R75       0.014500
      2 CAB        -22.2110    41.7420    54.8010 ca         1 R75      -0.115400
      3 CAC        -22.0850    43.1410    54.7050 ca         1 R75       0.221100
      4 CAD        -21.6380    43.8770    55.8170 ca         1 R75      -0.115400
      5 CAE        -21.3280    43.2220    57.0210 ca         1 R75       0.014500
      6 CAF        -21.4760    41.8210    57.1330 ca         1 R75      -0.210600
      7 CAJ        -21.1460    41.0860    58.4090 c          1 R75       0.630900
      8 CAL        -21.2200    41.8490    59.6770 cc         1 R75      -0.249400
      9 CAM        -20.2110    41.9100    60.6320 cd         1 R75       0.118900
     10 CAO        -21.6450    43.5050    61.1950 ca         1 R75       0.050100
     11 CAP        -22.1360    42.9180    60.0520 ca         1 R75      -0.081800
     12 CAQ        -18.8990    41.1730    60.7400 c3         1 R75      -0.024200
     13 CAR        -19.0160    39.8860    61.5790 c3         1 R75      -0.085100
     14 CAS        -22.2920    44.5640    61.8390 ca         1 R75      -0.096000
     15 CAT        -23.5010    45.0260    61.2740 ca         1 R75      -0.095000
     16 CAU        -24.0240    44.4180    60.1050 ca         1 R75      -0.121000
     17 CAV        -23.3450    43.3460    59.4830 ca         1 R75      -0.069000
     18 OAG        -22.3850    43.7800    53.5360 oh         1 R75      -0.502100
     19 OAK        -20.6770    39.9560    58.3650 o          1 R75      -0.526100
     20 OAN        -20.4880    42.8890    61.5550 os         1 R75      -0.167200
     21 Br1        -21.4350    45.7830    55.7230 br         1 R75      -0.073100
     22 Br2        -22.8050    40.7000    53.3020 br         1 R75      -0.073100
     23 H1         -22.0080    40.0050    56.0650 ha         1 R75       0.147500
     24 H2         -20.9580    43.8120    57.8570 ha         1 R75       0.147500
     25 H4         -18.5200    40.9230    59.7430 hc         1 R75       0.068700
     26 H5         -18.1460    41.8260    61.1970 hc         1 R75       0.068700
     27 H6         -18.0460    39.3790    61.6400 hc         1 R75       0.045700
     28 H7         -19.3500    40.1170    62.5970 hc         1 R75       0.045700
     29 H8         -19.7380    39.1950    61.1270 hc         1 R75       0.045700
     30 H9         -21.8790    45.0110    62.7400 ha         1 R75       0.133000
     31 H10        -24.0370    45.8480    61.7420 ha         1 R75       0.119000
     32 H11        -24.9610    44.7770    59.6840 ha         1 R75       0.118000
     33 H12        -23.7510    42.8700    58.5940 ha         1 R75       0.125000
     34 H13        -22.2290    44.7380    53.6740 ho         1 R75       0.489000
@<TRIPOS>BOND
     1     1     2 ar  
     2     1     6 ar  
     3     1    23 1   
     4     2     3 ar  
     5     2    22 1   
     6     3     4 ar  
     7     3    18 1   
     8     4     5 ar  
     9     4    21 1   
    10     5     6 ar  
    11     5    24 1   
    12     6     7 1   
    13     7     8 1   
    14     7    19 2   
    15     8     9 2   
    16     8    11 1   
    17     9    12 1   
    18     9    20 1   
    19    10    11 ar  
    20    10    14 ar  
    21    10    20 1   
    22    11    17 ar  
    23    12    13 1   
    24    12    25 1   
    25    12    26 1   
    26    13    27 1   
    27    13    28 1   
    28    13    29 1   
    29    14    15 ar  
    30    14    30 1   
    31    15    16 ar  
    32    15    31 1   
    33    16    17 ar  
    34    16    32 1   
    35    17    33 1   
    36    18    34 1   
@<TRIPOS>SUBSTRUCTURE
     1 R75         1 TEMP              0 ****  ****    0 ROOT
