@<TRIPOS>MOLECULE
R75
   34    36     1     0     0
SMALL
abcg2


@<TRIPOS>ATOM
      1 CAA        -21.8560    41.1250    56.0300 ca         1 R75       0.014500
      2 CAB        -22.2490    41.6940    54.8370 ca         1 R75      -0.115400
      3 CAC        -22.1560    43.0750    54.6120 ca         1 R75       0.221100
      4 CAD        -21.6510    43.8590    55.6550 ca         1 R75      -0.115400
      5 CAE        -21.2740    43.3010    56.8630 ca         1 R75       0.014500
      6 CAF        -21.3800    41.9300    57.0620 ca         1 R75      -0.210600
      7 CAJ        -20.9230    41.2990    58.3260 c          1 R75       0.630900
      8 CAL        -21.0130    42.0820    59.5620 cc         1 R75      -0.249400
      9 CAM        -20.1330    41.9870    60.6020 cd         1 R75       0.118900
     10 CAO        -21.6340    43.4400    61.2490 ca         1 R75       0.050100
     11 CAP        -22.0190    43.0370    59.9710 ca         1 R75      -0.081800
     12 CAQ        -18.9110    41.1750    60.8170 c3         1 R75      -0.024200
     13 CAR        -19.2010    39.8950    61.6030 c3         1 R75      -0.085100
     14 CAS        -22.3360    44.3450    62.0220 ca         1 R75      -0.096000
     15 CAT        -23.4970    44.8570    61.4650 ca         1 R75      -0.095000
     16 CAU        -23.9240    44.4610    60.1930 ca         1 R75      -0.121000
     17 CAV        -23.2010    43.5530    59.4370 ca         1 R75      -0.069000
     18 OAG        -22.5500    43.5370    53.4340 oh         1 R75      -0.502100
     19 OAK        -20.4790    40.1660    58.3190 o          1 R75      -0.526100
     20 OAN        -20.4890    42.8070    61.6090 os         1 R75      -0.167200
     21 BR1        -21.4800    45.7200    55.4130 br         1 R75      -0.073100
     22 BR2        -22.9240    40.6060    53.4610 br         1 R75      -0.073100
     23 H1         -21.9330    40.0560    56.1730 ha         1 R75       0.147500
     24 H2         -20.8760    43.9340    57.6450 ha         1 R75       0.147500
     25 H4         -18.4740    40.9230    59.8520 hc         1 R75       0.068700
     26 H5         -18.1760    41.7810    61.3520 hc         1 R75       0.068700
     27 H6         -18.2760    39.3420    61.7630 hc         1 R75       0.045700
     28 H7         -19.6330    40.1130    62.5790 hc         1 R75       0.045700
     29 H8         -19.8910    39.2540    61.0560 hc         1 R75       0.045700
     30 H9         -22.0000    44.6330    63.0090 ha         1 R75       0.133000
     31 H10        -24.0850    45.5690    62.0270 ha         1 R75       0.119000
     32 H11        -24.8410    44.8720    59.7920 ha         1 R75       0.118000
     33 H12        -23.5580    43.2540    58.4600 ha         1 R75       0.125000
     34 H13        -22.4650    44.4970    53.3590 ho         1 R75       0.489000
@<TRIPOS>BOND
     1     1     2 ar  
     2     1     6 ar  
     3     1    23 1   
     4     2     3 ar  
     5     2    22 1   
     6     3     4 ar  
     7     3    18 1   
     8     4     5 ar  
     9     4    21 1   
    10     5     6 ar  
    11     5    24 1   
    12     6     7 1   
    13     7     8 1   
    14     7    19 2   
    15     8     9 2   
    16     8    11 1   
    17     9    12 1   
    18     9    20 1   
    19    10    11 ar  
    20    10    14 ar  
    21    10    20 1   
    22    11    17 ar  
    23    12    13 1   
    24    12    25 1   
    25    12    26 1   
    26    13    27 1   
    27    13    28 1   
    28    13    29 1   
    29    14    15 ar  
    30    14    30 1   
    31    15    16 ar  
    32    15    31 1   
    33    16    17 ar  
    34    16    32 1   
    35    17    33 1   
    36    18    34 1   
@<TRIPOS>SUBSTRUCTURE
     1 R75         1 TEMP              0 ****  ****    0 ROOT
