@<TRIPOS>MOLECULE
R76
   49    52     1     0     0
SMALL
No Charge or Current Charge


@<TRIPOS>ATOM
      1 N1         -21.5650     6.7340    30.8300 n          1 R76      -0.420800
      2 N3         -16.1440     4.6440    26.8450 nb         1 R76      -0.652000
      3 C4         -21.6370     4.9270    29.1400 c6         1 R76      -0.116400
      4 C5         -20.1260     4.8580    28.8480 c          1 R76       0.604100
      5 C6         -18.4640     5.3920    26.9760 ca         1 R76      -0.101000
      6 C7         -17.3760     4.5890    27.4000 ca         1 R76       0.347900
      7 C8         -15.9480     5.5160    25.8310 ca         1 R76       0.363900
      8 C10        -16.6990     7.2410    24.2700 ca         1 R76      -0.078000
      9 C13        -19.2680     7.1410    25.4130 ca         1 R76      -0.113000
     10 C15        -22.0600     3.9620    30.2490 ca         1 R76      -0.038300
     11 C17        -22.7330     1.7360    30.9700 ca         1 R76       0.144000
     12 C20        -22.1370     4.4260    31.5840 ca         1 R76      -0.124600
     13 C21        -21.7990     5.8640    31.9220 c          1 R76       0.579600
     14 O2         -21.6790     6.2410    33.0800 o          1 R76      -0.540000
     15 C2         -21.1690     8.1630    31.0480 c3         1 R76       0.013000
     16 C1         -19.8030     8.5760    30.4590 c          1 R76       0.575100
     17 O          -19.5330     9.7360    30.1750 o          1 R76      -0.625100
     18 N          -18.9130     7.5490    30.2320 ns         1 R76      -0.492900
     19 C          -17.5950     7.7100    29.6150 c3         1 R76       0.094300
     20 C19        -22.5080     3.5230    32.6050 ca         1 R76      -0.042000
     21 C18        -22.8070     2.1850    32.2970 ca         1 R76      -0.105000
     22 Cl         -23.1050     0.0600    30.5870 cl         1 R76      -0.197000
     23 C16        -22.3590     2.6210    29.9470 ca         1 R76      -0.102000
     24 C3         -22.0560     6.3670    29.4850 c6         1 R76       0.114000
     25 O1         -19.3260     4.4530    29.6840 o          1 R76      -0.572100
     26 N2         -19.7490     5.3020    27.5890 ns         1 R76      -0.157000
     27 C14        -18.2500     6.2940    25.9080 ca         1 R76      -0.018000
     28 C12        -19.0000     8.0260    24.3540 ca         1 R76      -0.073000
     29 C11        -17.7180     8.0760    23.7830 ca         1 R76      -0.107000
     30 C9         -16.9630     6.3540    25.3310 ca         1 R76      -0.097000
     31 H1         -22.1540     4.7110    28.1950 hc         1 R76       0.078700
     32 H2         -17.4870     3.8560    28.1960 h4         1 R76       0.034100
     33 H3         -14.9460     5.5400    25.4050 h4         1 R76       0.024100
     34 H4         -15.7070     7.2870    23.8240 ha         1 R76       0.121000
     35 H5         -20.2680     7.1280    25.8380 ha         1 R76       0.108000
     36 H6         -21.1260     8.3910    32.1190 h1         1 R76       0.086200
     37 H7         -21.9290     8.8170    30.6030 h1         1 R76       0.086200
     38 H8         -19.2100     6.6210    30.5160 hn         1 R76       0.341500
     39 H9         -17.0720     6.7450    29.6120 h1         1 R76       0.042367
     40 H10        -17.7130     8.0600    28.5810 h1         1 R76       0.042367
     41 H11        -17.0050     8.4410    30.1840 h1         1 R76       0.042367
     42 H12        -22.5670     3.8570    33.6400 ha         1 R76       0.146000
     43 H13        -23.0950     1.4950    33.0860 ha         1 R76       0.138000
     44 H14        -22.3000     2.2620    28.9230 ha         1 R76       0.131000
     45 H15        -21.6740     7.0700    28.7300 h1         1 R76       0.056200
     46 H16        -23.1540     6.4400    29.4790 h1         1 R76       0.056200
     47 H17        -20.5110     5.6340    27.0120 hn         1 R76       0.155000
     48 H18        -19.7880     8.6750    23.9770 ha         1 R76       0.123000
     49 H19        -17.5150     8.7620    22.9640 ha         1 R76       0.123000
@<TRIPOS>BOND
     1     1    13 1   
     2     1    15 1   
     3     1    24 1   
     4     2     6 ar  
     5     2     7 ar  
     6     3     4 1   
     7     3    10 1   
     8     3    24 1   
     9     3    31 1   
    10     4    25 2   
    11     4    26 1   
    12     5     6 ar  
    13     5    26 1   
    14     5    27 ar  
    15     6    32 1   
    16     7    30 ar  
    17     7    33 1   
    18     8    29 ar  
    19     8    30 ar  
    20     8    34 1   
    21     9    27 ar  
    22     9    28 ar  
    23     9    35 1   
    24    10    12 ar  
    25    10    23 ar  
    26    11    21 ar  
    27    11    22 1   
    28    11    23 ar  
    29    12    13 1   
    30    12    20 ar  
    31    13    14 2   
    32    15    16 1   
    33    15    36 1   
    34    15    37 1   
    35    16    17 2   
    36    16    18 1   
    37    18    19 1   
    38    18    38 1   
    39    19    39 1   
    40    19    40 1   
    41    19    41 1   
    42    20    21 ar  
    43    20    42 1   
    44    21    43 1   
    45    23    44 1   
    46    24    45 1   
    47    24    46 1   
    48    26    47 1   
    49    27    30 ar  
    50    28    29 ar  
    51    28    48 1   
    52    29    49 1   
@<TRIPOS>SUBSTRUCTURE
     1 R76         1 TEMP              0 ****  ****    0 ROOT
