@<TRIPOS>MOLECULE
R76
   49    52     1     0     0
SMALL
abcg2


@<TRIPOS>ATOM
      1 N1         -21.5570     6.6900    30.3020 n          1 R76      -0.420800
      2 N3         -16.4440     4.1670    26.4620 nb         1 R76      -0.652000
      3 C4         -21.7480     4.6270    28.9600 c6         1 R76      -0.116400
      4 C5         -20.2590     4.5810    28.6070 c          1 R76       0.604100
      5 C6         -18.6880     4.9660    26.7820 ca         1 R76      -0.101000
      6 C7         -17.7210     3.9990    26.8870 ca         1 R76       0.347900
      7 C8         -16.1240     5.3190    25.9180 ca         1 R76       0.363900
      8 C10        -16.6340     7.6290    25.1890 ca         1 R76      -0.078000
      9 C13        -19.2750     7.2980    26.0840 ca         1 R76      -0.113000
     10 C15        -22.0300     3.8940    30.2420 ca         1 R76      -0.038300
     11 C17        -22.6120     1.9120    31.4530 ca         1 R76       0.144000
     12 C20        -21.9020     4.5850    31.4510 ca         1 R76      -0.124600
     13 C21        -21.4850     6.0160    31.4820 c          1 R76       0.579600
     14 O2         -21.0830     6.5490    32.5180 o          1 R76      -0.540000
     15 C2         -21.2550     8.1070    30.2590 c3         1 R76       0.013000
     16 C1         -19.8570     8.4910    29.7750 c          1 R76       0.575100
     17 O          -19.6140     9.6780    29.5430 o          1 R76      -0.625100
     18 N          -18.9540     7.5150    29.6460 ns         1 R76      -0.492900
     19 C          -17.5900     7.7710    29.2190 c3         1 R76       0.094300
     20 C19        -22.1340     3.9210    32.6540 ca         1 R76      -0.042000
     21 C18        -22.4960     2.5830    32.6650 ca         1 R76      -0.105000
     22 CL         -23.0610     0.2240    31.4520 cl         1 R76      -0.197000
     23 C16        -22.3800     2.5500    30.2430 ca         1 R76      -0.102000
     24 C3         -22.1780     6.0880    29.1200 c6         1 R76       0.114000
     25 O1         -19.3870     4.4970    29.4640 o          1 R76      -0.572100
     26 N2         -19.9930     4.7300    27.2870 ns         1 R76      -0.157000
     27 C14        -18.3670     6.2210    26.2040 ca         1 R76      -0.018000
     28 C12        -18.8620     8.4870    25.5370 ca         1 R76      -0.073000
     29 C11        -17.5350     8.6570    25.0830 ca         1 R76      -0.107000
     30 C9         -17.0290     6.3940    25.7530 ca         1 R76      -0.097000
     31 H1         -22.3240     4.1910    28.1430 hc         1 R76       0.078700
     32 H2         -17.9630     3.0420    27.3320 h4         1 R76       0.034100
     33 H3         -15.0980     5.4420    25.5800 h4         1 R76       0.024100
     34 H4         -15.6120     7.7470    24.8510 ha         1 R76       0.121000
     35 H5         -20.2900     7.1890    26.4390 ha         1 R76       0.108000
     36 H6         -21.3690     8.5250    31.2580 h1         1 R76       0.086200
     37 H7         -21.9680     8.6070    29.6040 h1         1 R76       0.086200
     38 H8         -19.2140     6.5620    29.8560 hn         1 R76       0.341500
     39 H9         -17.1030     6.8150    29.0430 h1         1 R76       0.042367
     40 H10        -17.5820     8.3490    28.2960 h1         1 R76       0.042367
     41 H11        -17.0350     8.3230    29.9800 h1         1 R76       0.042367
     42 H12        -22.0290     4.4620    33.5840 ha         1 R76       0.146000
     43 H13        -22.6840     2.0670    33.5960 ha         1 R76       0.138000
     44 H14        -22.4720     2.0090    29.3110 ha         1 R76       0.131000
     45 H15        -21.8810     6.6700    28.2510 h1         1 R76       0.056200
     46 H16        -23.2680     6.1340    29.2010 h1         1 R76       0.056200
     47 H17        -20.7730     4.8620    26.6580 hn         1 R76       0.155000
     48 H18        -19.5590     9.3110    25.4580 ha         1 R76       0.123000
     49 H19        -17.2340     9.6050    24.6560 ha         1 R76       0.123000
@<TRIPOS>BOND
     1     1    13 1   
     2     1    15 1   
     3     1    24 1   
     4     2     6 ar  
     5     2     7 ar  
     6     3     4 1   
     7     3    10 1   
     8     3    24 1   
     9     3    31 1   
    10     4    25 2   
    11     4    26 1   
    12     5     6 ar  
    13     5    26 1   
    14     5    27 ar  
    15     6    32 1   
    16     7    30 ar  
    17     7    33 1   
    18     8    29 ar  
    19     8    30 ar  
    20     8    34 1   
    21     9    27 ar  
    22     9    28 ar  
    23     9    35 1   
    24    10    12 ar  
    25    10    23 ar  
    26    11    21 ar  
    27    11    22 1   
    28    11    23 ar  
    29    12    13 1   
    30    12    20 ar  
    31    13    14 2   
    32    15    16 1   
    33    15    36 1   
    34    15    37 1   
    35    16    17 2   
    36    16    18 1   
    37    18    19 1   
    38    18    38 1   
    39    19    39 1   
    40    19    40 1   
    41    19    41 1   
    42    20    21 ar  
    43    20    42 1   
    44    21    43 1   
    45    23    44 1   
    46    24    45 1   
    47    24    46 1   
    48    26    47 1   
    49    27    30 ar  
    50    28    29 ar  
    51    28    48 1   
    52    29    49 1   
@<TRIPOS>SUBSTRUCTURE
     1 R76         1 TEMP              0 ****  ****    0 ROOT
