@<TRIPOS>MOLECULE
R77
   44    44     1     0     0
SMALL
No Charge or Current Charge


@<TRIPOS>ATOM
      1 O6           0.7800     2.8520     1.2550 o          1 R77      -0.936500
      2 P4           1.7960     2.2320     0.3580 p5         1 R77       1.299500
      3 O5           1.3800     2.3610    -1.0670 o          1 R77      -0.936500
      4 O7           3.1140     2.9000     0.5600 o          1 R77      -0.936500
      5 C1           1.9840     0.4430     0.8180 c3         1 R77      -0.391400
      6 C2           1.5110    -0.6460    -0.1970 c3         1 R77       0.005300
      7 C3           2.4310    -1.9020    -0.1570 c3         1 R77      -0.143400
      8 C8           3.8620    -1.6190    -0.6730 c          1 R77       0.636100
      9 N9           4.9660    -1.7040     0.2270 n          1 R77      -0.298300
     10 O10          4.7910    -2.0260     1.6220 oh         1 R77      -0.405100
     11 C11          6.3560    -1.4450    -0.1970 c3         1 R77       0.091300
     12 O12          4.0540    -1.3740    -1.8600 o          1 R77      -0.616100
     13 C13          0.0290    -1.0870     0.0080 c3         1 R77      -0.056400
     14 C14         -1.0370     0.0200    -0.1630 c3         1 R77      -0.071400
     15 C15         -2.4820    -0.5190    -0.0680 c3         1 R77      -0.063400
     16 C16         -3.5540     0.5800    -0.2310 c3         1 R77      -0.042100
     17 C17         -4.9670     0.0210    -0.1360 ca         1 R77      -0.041300
     18 C19         -5.6340    -0.4280    -1.2930 ca         1 R77      -0.109500
     19 C21         -6.9370    -0.9480    -1.2040 ca         1 R77      -0.122000
     20 C22         -7.5810    -1.0230     0.0420 ca         1 R77      -0.142000
     21 C20         -6.9210    -0.5790     1.2000 ca         1 R77      -0.122000
     22 C18         -5.6180    -0.0590     1.1110 ca         1 R77      -0.109500
     23 H3           3.0560     0.3280     1.0030 hc         1 R77       0.012700
     24 H4           1.4990     0.2820     1.7870 hc         1 R77       0.012700
     25 H5           1.5920    -0.2360    -1.2120 hc         1 R77       0.060700
     26 H6           2.4360    -2.3000     0.8630 hc         1 R77       0.029700
     27 H7           2.0000    -2.6620    -0.8190 hc         1 R77       0.029700
     28 H8           4.8670    -3.0050     1.6730 ho         1 R77       0.408000
     29 H9           6.6530    -2.1800    -0.9560 h1         1 R77       0.033700
     30 H10          6.4300    -0.4360    -0.6240 h1         1 R77       0.033700
     31 H11          7.0370    -1.5200     0.6600 h1         1 R77       0.033700
     32 H12         -0.2000    -1.8840    -0.7100 hc         1 R77       0.023700
     33 H13         -0.0790    -1.5320     1.0050 hc         1 R77       0.023700
     34 H14         -0.8970     0.7830     0.6100 hc         1 R77       0.062200
     35 H15         -0.8980     0.5090    -1.1350 hc         1 R77       0.062200
     36 H16         -2.6350    -1.2840    -0.8390 hc         1 R77       0.034700
     37 H17         -2.6210    -1.0120     0.9030 hc         1 R77       0.034700
     38 H18         -3.4010     1.3490     0.5360 hc         1 R77       0.050200
     39 H19         -3.4120     1.0810    -1.1970 hc         1 R77       0.050200
     40 H20         -5.1400    -0.3760    -2.2610 ha         1 R77       0.119500
     41 H21         -7.4460    -1.2940    -2.1010 ha         1 R77       0.093000
     42 H22         -8.5890    -1.4260     0.1110 ha         1 R77       0.088000
     43 H23         -7.4180    -0.6370     2.1650 ha         1 R77       0.093000
     44 H24         -5.1120     0.2810     2.0130 ha         1 R77       0.119500
@<TRIPOS>BOND
     1     1     2 1   
     2     2     3 1   
     3     2     4 1   
     4     2     5 1   
     5     5     6 1   
     6     5    23 1   
     7     5    24 1   
     8     6     7 1   
     9     6    13 1   
    10     6    25 1   
    11     7     8 1   
    12     7    26 1   
    13     7    27 1   
    14     8     9 1   
    15     8    12 2   
    16     9    10 1   
    17     9    11 1   
    18    10    28 1   
    19    11    29 1   
    20    11    30 1   
    21    11    31 1   
    22    13    14 1   
    23    13    32 1   
    24    13    33 1   
    25    14    15 1   
    26    14    34 1   
    27    14    35 1   
    28    15    16 1   
    29    15    36 1   
    30    15    37 1   
    31    16    17 1   
    32    16    38 1   
    33    16    39 1   
    34    17    18 ar  
    35    17    22 ar  
    36    18    19 ar  
    37    18    40 1   
    38    19    20 ar  
    39    19    41 1   
    40    20    21 ar  
    41    20    42 1   
    42    21    22 ar  
    43    21    43 1   
    44    22    44 1   
@<TRIPOS>SUBSTRUCTURE
     1 R77         1 TEMP              0 ****  ****    0 ROOT
