@<TRIPOS>MOLECULE
R77
   44    44     1     0     0
SMALL
abcg2


@<TRIPOS>ATOM
      1 O6           0.0060     1.5470     2.1560 o          1 R77      -0.936500
      2 P4           1.2880     1.9590     1.4160 p5         1 R77       1.299500
      3 O5           1.0450     2.7190     0.1020 o          1 R77      -0.936500
      4 O7           2.3050     2.6550     2.3370 o          1 R77      -0.936500
      5 C1           2.1610     0.3870     0.9230 c3         1 R77      -0.391400
      6 C2           1.5400    -0.4710    -0.1800 c3         1 R77       0.005300
      7 C3           2.3790    -1.7360    -0.4370 c3         1 R77      -0.143400
      8 C8           3.7940    -1.4130    -0.8490 c          1 R77       0.636100
      9 N9           4.8110    -1.8020    -0.0460 n          1 R77      -0.298300
     10 O10          4.5410    -2.2230     1.2310 oh         1 R77      -0.405100
     11 C11          6.1940    -1.4550    -0.2660 c3         1 R77       0.091300
     12 O12          4.0270    -0.8440    -1.9080 o          1 R77      -0.616100
     13 C13          0.0910    -0.8920     0.1240 c3         1 R77      -0.056400
     14 C14         -0.9650    -0.0570    -0.5880 c3         1 R77      -0.071400
     15 C15         -2.3740    -0.4180    -0.1410 c3         1 R77      -0.063400
     16 C16         -3.4640     0.3450    -0.8950 c3         1 R77      -0.042100
     17 C17         -4.8420    -0.0580    -0.4490 ca         1 R77      -0.041300
     18 C19         -5.4940    -1.1390    -1.0420 ca         1 R77      -0.109500
     19 C21         -6.7450    -1.5490    -0.6010 ca         1 R77      -0.122000
     20 C22         -7.3690    -0.8820     0.4470 ca         1 R77      -0.142000
     21 C20         -6.7300     0.1970     1.0460 ca         1 R77      -0.122000
     22 C18         -5.4780     0.6020     0.6000 ca         1 R77      -0.109500
     23 H3           3.1740     0.6760     0.6150 hc         1 R77       0.012700
     24 H4           2.2960    -0.2350     1.8170 hc         1 R77       0.012700
     25 H5           1.5380     0.1210    -1.1020 hc         1 R77       0.060700
     26 H6           2.3280    -2.3830     0.4360 hc         1 R77       0.029700
     27 H7           1.9380    -2.2890    -1.2720 hc         1 R77       0.029700
     28 H8           4.6430    -3.1850     1.2230 ho         1 R77       0.408000
     29 H9           6.3520    -1.2350    -1.3170 h1         1 R77       0.033700
     30 H10          6.4870    -0.5840     0.3240 h1         1 R77       0.033700
     31 H11          6.8290    -2.2960     0.0090 h1         1 R77       0.033700
     32 H12         -0.0590    -1.9430    -0.1500 hc         1 R77       0.023700
     33 H13         -0.0770    -0.8250     1.2000 hc         1 R77       0.023700
     34 H14         -0.7720     0.9990    -0.4000 hc         1 R77       0.062200
     35 H15         -0.8750    -0.2100    -1.6710 hc         1 R77       0.062200
     36 H16         -2.5380    -1.4940    -0.2690 hc         1 R77       0.034700
     37 H17         -2.4670    -0.2150     0.9310 hc         1 R77       0.034700
     38 H18         -3.3240     1.4190    -0.7420 hc         1 R77       0.050200
     39 H19         -3.3540     0.1630    -1.9680 hc         1 R77       0.050200
     40 H20         -5.0160    -1.6670    -1.8600 ha         1 R77       0.119500
     41 H21         -7.2360    -2.3880    -1.0770 ha         1 R77       0.093000
     42 H22         -8.3460    -1.1960     0.7900 ha         1 R77       0.088000
     43 H23         -7.2100     0.7270     1.8590 ha         1 R77       0.093000
     44 H24         -4.9880     1.4460     1.0730 ha         1 R77       0.119500
@<TRIPOS>BOND
     1     1     2 1   
     2     2     3 1   
     3     2     4 1   
     4     2     5 1   
     5     5     6 1   
     6     5    23 1   
     7     5    24 1   
     8     6     7 1   
     9     6    13 1   
    10     6    25 1   
    11     7     8 1   
    12     7    26 1   
    13     7    27 1   
    14     8     9 1   
    15     8    12 2   
    16     9    10 1   
    17     9    11 1   
    18    10    28 1   
    19    11    29 1   
    20    11    30 1   
    21    11    31 1   
    22    13    14 1   
    23    13    32 1   
    24    13    33 1   
    25    14    15 1   
    26    14    34 1   
    27    14    35 1   
    28    15    16 1   
    29    15    36 1   
    30    15    37 1   
    31    16    17 1   
    32    16    38 1   
    33    16    39 1   
    34    17    18 ar  
    35    17    22 ar  
    36    18    19 ar  
    37    18    40 1   
    38    19    20 ar  
    39    19    41 1   
    40    20    21 ar  
    41    20    42 1   
    42    21    22 ar  
    43    21    43 1   
    44    22    44 1   
@<TRIPOS>SUBSTRUCTURE
     1 R77         1 TEMP              0 ****  ****    0 ROOT
