@<TRIPOS>MOLECULE
R78
   77    81     1     0     0
SMALL
No Charge or Current Charge


@<TRIPOS>ATOM
      1 N1           1.4250    -1.3390     0.7070 nb         1 R78      -0.249000
      2 N3           5.4400     0.0090     0.1880 nh         1 R78      -0.769300
      3 C4           2.4470    -2.1940     0.8640 ca         1 R78       0.127900
      4 C5           6.4620    -1.0660    -0.1060 c6         1 R78       0.163500
      5 C6           6.2050    -2.4610     0.5360 c          1 R78       0.563000
      6 C7          -0.6770     0.8520     0.3130 ca         1 R78       0.324000
      7 C8           5.7450     1.4820     0.2700 c5         1 R78       0.236500
      8 C13          7.2470     3.2950     0.0960 c5         1 R78      -0.079900
      9 C15          5.3900     2.1430    -1.0900 c5         1 R78      -0.094900
     10 C17         -2.7790     2.0820     0.5900 ca         1 R78      -0.116000
     11 C20         -1.4210    -0.3080     0.0290 ca         1 R78      -0.135000
     12 C22         -7.1730    -0.3630     0.0300 c6         1 R78       0.108700
     13 C24         -9.2510    -0.1680    -1.4330 c6         1 R78       0.167800
     14 C28         -9.0920    -2.0330     0.1660 c6         1 R78       0.167800
     15 O2          -5.6520     2.0080     0.5810 o          1 R78      -0.613100
     16 N6          -5.7140    -0.2030     0.0840 ns         1 R78      -0.497900
     17 C29         -7.5620    -1.8380     0.2840 c6         1 R78      -0.091900
     18 N7          -9.5940    -1.5900    -1.1630 n3         1 R78      -0.718600
     19 C30        -11.0360    -1.8640    -1.3390 c3         1 R78       0.153100
     20 C23         -7.7250     0.0700    -1.3490 c6         1 R78      -0.091900
     21 C18         -3.5260     0.9110     0.3240 ca         1 R78      -0.154600
     22 C16         -1.3650     2.0630     0.5800 ca         1 R78       0.069100
     23 O3          -0.6160     3.2090     0.8280 os         1 R78      -0.365100
     24 C31         -1.2200     4.4850     1.1120 c3         1 R78       0.153900
     25 C19         -2.8260    -0.2840     0.0380 ca         1 R78      -0.086000
     26 C1           1.7410    -0.0690     0.4290 ca         1 R78       0.407900
     27 N2           2.9670     0.4320     0.2750 nb         1 R78      -0.310000
     28 C2           4.0480    -0.4350     0.4060 ca         1 R78       0.411900
     29 C14          6.2120     3.4740    -1.0630 c5         1 R78      -0.079900
     30 C12          7.2710     1.7620     0.3180 c5         1 R78      -0.094900
     31 C9           6.6560    -1.2470    -1.6470 c3         1 R78      -0.093400
     32 O1           7.1290    -3.2540     0.7100 o          1 R78      -0.549000
     33 N4           4.8730    -2.7550     0.9130 n          1 R78      -0.186400
     34 C11          4.5920    -4.0580     1.5710 c3         1 R78       0.079300
     35 C3           3.8000    -1.7840     0.7860 ca         1 R78      -0.236000
     36 H4           2.1650    -3.2240     1.0720 h4         1 R78       0.025100
     37 H5           7.4340    -0.7860     0.3220 h1         1 R78       0.088700
     38 H8           5.2260     1.9640     1.1130 h1         1 R78       0.077700
     39 H10          4.9980    -2.6200    -2.0680 hc         1 R78       0.039700
     40 H10A         4.6150    -0.9100    -2.3760 hc         1 R78       0.039700
     41 H10B         5.6500    -1.8050    -3.5030 hc         1 R78       0.039700
     42 H13          8.2350     3.6930    -0.1620 hc         1 R78       0.045950
     43 H13A         6.9170     3.8190     1.0020 hc         1 R78       0.045950
     44 H15          5.6900     1.5250    -1.9420 hc         1 R78       0.053450
     45 H15A         4.3160     2.3300    -1.1980 hc         1 R78       0.053450
     46 H17         -3.3130     3.0040     0.8010 ha         1 R78       0.140000
     47 H20         -0.9210    -1.2360    -0.2200 ha         1 R78       0.156000
     48 H22         -7.6270     0.2630     0.8130 h1         1 R78       0.078700
     49 H24A        -9.7570     0.4900    -0.7100 h1         1 R78       0.033450
     50 H28         -9.3250    -3.0960     0.3260 h1         1 R78       0.033450
     51 H28A        -9.5900    -1.4680     0.9690 h1         1 R78       0.033450
     52 HN6         -5.1410    -1.0150    -0.1000 hn         1 R78       0.311500
     53 H29         -7.0550    -2.4940    -0.4370 hc         1 R78       0.052700
     54 H29A        -7.2290    -2.1470     1.2830 hc         1 R78       0.052700
     55 H30        -11.3630    -1.5870    -2.3500 h1         1 R78       0.030367
     56 H30A       -11.2480    -2.9330    -1.1970 h1         1 R78       0.030367
     57 H30B       -11.6350    -1.2950    -0.6160 h1         1 R78       0.030367
     58 H23         -7.5110     1.1330    -1.5250 hc         1 R78       0.052700
     59 H23A        -7.2230    -0.4890    -2.1500 hc         1 R78       0.052700
     60 H31         -1.8480     4.8150     0.2750 h1         1 R78       0.043700
     61 H31A        -1.8380     4.4320     2.0180 h1         1 R78       0.043700
     62 H31B        -0.4450     5.2440     1.2750 h1         1 R78       0.043700
     63 H19         -3.3530    -1.2080    -0.1870 ha         1 R78       0.113000
     64 H14          5.5700     4.3440    -0.8830 hc         1 R78       0.045950
     65 H14A         6.7110     3.6430    -2.0240 hc         1 R78       0.045950
     66 H12          7.7220     1.4840     1.2770 hc         1 R78       0.053450
     67 H12A         7.8350     1.2710    -0.4820 hc         1 R78       0.053450
     68 H9           7.0450    -0.3210    -2.0840 hc         1 R78       0.058200
     69 H9A          7.4390    -1.9950    -1.8230 hc         1 R78       0.058200
     70 H11          5.5020    -4.5030     1.9900 h1         1 R78       0.052367
     71 H11A         3.8830    -3.9140     2.3950 h1         1 R78       0.052367
     72 H11B         4.1600    -4.7510     0.8390 h1         1 R78       0.052367
     73 C10          5.4010    -1.6720    -2.4440 c3         1 R78      -0.094100
     74 N5           0.7300     0.8690     0.3020 nu         1 R78      -0.921900
     75 C21         -5.0440     0.9720     0.3440 c          1 R78       0.617700
     76 H24         -9.5980     0.1240    -2.4350 h1         1 R78       0.033450
     77 HN5          1.0900     1.8230     0.3220 hn         1 R78       0.527000
@<TRIPOS>BOND
     1     1     3 ar  
     2     1    26 ar  
     3     2     4 1   
     4     2     7 1   
     5     2    28 1   
     6     3    35 ar  
     7     3    36 1   
     8     4     5 1   
     9     4    31 1   
    10     4    37 1   
    11     5    32 2   
    12     5    33 1   
    13     6    11 ar  
    14     6    22 ar  
    15     6    74 1   
    16     7     9 1   
    17     7    30 1   
    18     7    38 1   
    19     8    29 1   
    20     8    30 1   
    21     8    42 1   
    22     8    43 1   
    23     9    29 1   
    24     9    44 1   
    25     9    45 1   
    26    10    21 ar  
    27    10    22 ar  
    28    10    46 1   
    29    11    25 ar  
    30    11    47 1   
    31    12    16 1   
    32    12    17 1   
    33    12    20 1   
    34    12    48 1   
    35    13    18 1   
    36    13    20 1   
    37    13    49 1   
    38    13    76 1   
    39    14    17 1   
    40    14    18 1   
    41    14    50 1   
    42    14    51 1   
    43    15    75 2   
    44    16    52 1   
    45    16    75 1   
    46    17    53 1   
    47    17    54 1   
    48    18    19 1   
    49    19    55 1   
    50    19    56 1   
    51    19    57 1   
    52    20    58 1   
    53    20    59 1   
    54    21    25 ar  
    55    21    75 1   
    56    22    23 1   
    57    23    24 1   
    58    24    60 1   
    59    24    61 1   
    60    24    62 1   
    61    25    63 1   
    62    26    27 ar  
    63    26    74 1   
    64    27    28 ar  
    65    28    35 ar  
    66    29    64 1   
    67    29    65 1   
    68    30    66 1   
    69    30    67 1   
    70    31    68 1   
    71    31    69 1   
    72    31    73 1   
    73    33    34 1   
    74    33    35 1   
    75    34    70 1   
    76    34    71 1   
    77    34    72 1   
    78    39    73 1   
    79    40    73 1   
    80    41    73 1   
    81    74    77 1   
@<TRIPOS>SUBSTRUCTURE
     1 R78         1 TEMP              0 ****  ****    0 ROOT
