@<TRIPOS>MOLECULE
R78
   77    81     1     0     0
SMALL
bcc


@<TRIPOS>ATOM
      1 N1           1.4130    -1.4670     0.3290 nb         1 R78      -0.775000
      2 N3           5.2490    -0.0770     0.3010 nh         1 R78      -0.769300
      3 C4           2.4370    -2.3280     0.4190 ca         1 R78       0.456200
      4 C5           6.3570    -0.9820     0.0550 c6         1 R78       0.163500
      5 C6           6.1000    -2.4110     0.5070 c          1 R78       0.705500
      6 C7          -0.6060     0.6890     0.2850 ca         1 R78       0.185600
      7 C8           5.4640     1.3670     0.3330 c5         1 R78       0.236500
      8 C13          6.7670     3.3270     0.5020 c5         1 R78      -0.079900
      9 C15          5.2280     2.1170    -0.9890 c5         1 R78      -0.094900
     10 C17         -2.6910     1.9330     0.3120 ca         1 R78      -0.134000
     11 C20         -1.3410    -0.4890     0.3810 ca         1 R78      -0.153000
     12 C22         -7.0410    -0.3270     0.0950 c6         1 R78       0.108700
     13 C24         -9.1270    -0.0770    -1.2710 c6         1 R78       0.167800
     14 C28         -9.0250    -1.8250     0.3630 c6         1 R78       0.167800
     15 O2          -5.4510     1.8790     0.8290 o          1 R78      -0.613100
     16 N6          -5.5940    -0.2590     0.1150 ns         1 R78      -0.564900
     17 C29         -7.5090    -1.7340     0.4450 c6         1 R78      -0.091900
     18 N7          -9.5100    -1.4380    -0.9480 n3         1 R78      -0.718600
     19 C30        -10.9390    -1.6220    -1.0530 c3         1 R78       0.153100
     20 C23         -7.6160     0.0880    -1.2570 c6         1 R78      -0.091900
     21 C18         -3.4190     0.7420     0.3910 ca         1 R78      -0.154600
     22 C16         -1.3140     1.9160     0.2470 ca         1 R78       0.069100
     23 O3          -0.5410     3.0170     0.1490 os         1 R78      -0.341900
     24 C31         -1.1630     4.2870     0.1260 c3         1 R78       0.130700
     25 C19         -2.7290    -0.4600     0.4320 ca         1 R78      -0.104000
     26 C1           1.7380    -0.1920     0.2800 ca         1 R78       0.933900
     27 N2           2.9780     0.3010     0.2610 nb         1 R78      -0.836000
     28 C2           3.9890    -0.5460     0.3190 ca         1 R78       0.740200
     29 C14          6.0200     3.4330    -0.8410 c5         1 R78      -0.079900
     30 C12          6.8530     1.8270     0.7700 c5         1 R78      -0.094900
     31 C9           6.8320    -1.0030    -1.4090 c3         1 R78      -0.093400
     32 O1           7.0550    -3.1450     0.6960 o          1 R78      -0.624500
     33 N4           4.8180    -2.8220     0.6330 n          1 R78      -0.346000
     34 C11          4.5200    -4.1950     0.9970 c3         1 R78       0.079300
     35 C3           3.7510    -1.9400     0.4370 ca         1 R78      -0.274000
     36 H4           2.1610    -3.3730     0.4940 h4         1 R78       0.025100
     37 H5           7.1980    -0.6540     0.6690 h1         1 R78       0.088700
     38 H8           4.7570     1.7620     1.0670 h1         1 R78       0.077700
     39 H10          5.3580    -2.3990    -2.2080 hc         1 R78       0.039700
     40 H10A         4.9330    -0.7030    -2.4370 hc         1 R78       0.039700
     41 H10B         6.1880    -1.4360    -3.4190 hc         1 R78       0.039700
     42 H13          7.7470     3.8040     0.4780 hc         1 R78       0.045950
     43 H13A         6.1920     3.8080     1.2960 hc         1 R78       0.045950
     44 H15          5.6080     1.5330    -1.8290 hc         1 R78       0.053450
     45 H15A         4.1640     2.2740    -1.1650 hc         1 R78       0.053450
     46 H17         -3.2300     2.8710     0.2950 ha         1 R78       0.158000
     47 H20         -0.8230    -1.4330     0.4230 ha         1 R78       0.174000
     48 H22         -7.4140     0.3610     0.8580 h1         1 R78       0.078700
     49 H24A        -9.5790     0.6470    -0.5680 h1         1 R78       0.033450
     50 H28         -9.3380    -2.8530     0.5640 h1         1 R78       0.033450
     51 H28A        -9.4700    -1.2000     1.1590 h1         1 R78       0.033450
     52 HN6         -5.1020    -1.0120    -0.3380 hn         1 R78       0.311500
     53 H29         -7.0650    -2.4560    -0.2480 hc         1 R78       0.052700
     54 H29A        -7.1810    -2.0020     1.4510 hc         1 R78       0.052700
     55 H30        -11.2770    -1.3810    -2.0620 h1         1 R78       0.030367
     56 H30A       -11.2000    -2.6630    -0.8540 h1         1 R78       0.030367
     57 H30B       -11.5110    -0.9950    -0.3500 h1         1 R78       0.030367
     58 H23         -7.3590     1.1270    -1.4720 hc         1 R78       0.052700
     59 H23A        -7.1720    -0.5290    -2.0450 hc         1 R78       0.052700
     60 H31         -1.8390     4.3910    -0.7260 h1         1 R78       0.043700
     61 H31A        -1.7200     4.4810     1.0460 h1         1 R78       0.043700
     62 H31B        -0.3650     5.0190     0.0340 h1         1 R78       0.043700
     63 H19         -3.2490    -1.4030     0.5350 ha         1 R78       0.131000
     64 H14          5.3700     4.3090    -0.8680 hc         1 R78       0.045950
     65 H14A         6.7290     3.5420    -1.6630 hc         1 R78       0.045950
     66 H12          7.0760     1.5810     1.8100 hc         1 R78       0.053450
     67 H12A         7.6380     1.3940     0.1450 hc         1 R78       0.053450
     68 H9           7.2290    -0.0180    -1.6620 hc         1 R78       0.058200
     69 H9A          7.6820    -1.6860    -1.4670 hc         1 R78       0.058200
     70 H11          5.4440    -4.7170     1.2180 h1         1 R78       0.052367
     71 H11A         3.8810    -4.2200     1.8790 h1         1 R78       0.052367
     72 H11B         4.0140    -4.7110     0.1800 h1         1 R78       0.052367
     73 C10          5.7650    -1.4080    -2.4140 c3         1 R78      -0.094100
     74 N5           0.7700     0.7760     0.2310 nu         1 R78      -0.728300
     75 C21         -4.9050     0.8430     0.4640 c          1 R78       0.684700
     76 H24         -9.5140     0.1700    -2.2620 h1         1 R78       0.033450
     77 HN5          1.1490     1.7100     0.1780 hn         1 R78       0.471800
@<TRIPOS>BOND
     1     1     3 ar  
     2     1    26 ar  
     3     2     4 1   
     4     2     7 1   
     5     2    28 1   
     6     3    35 ar  
     7     3    36 1   
     8     4     5 1   
     9     4    31 1   
    10     4    37 1   
    11     5    32 2   
    12     5    33 1   
    13     6    11 ar  
    14     6    22 ar  
    15     6    74 1   
    16     7     9 1   
    17     7    30 1   
    18     7    38 1   
    19     8    29 1   
    20     8    30 1   
    21     8    42 1   
    22     8    43 1   
    23     9    29 1   
    24     9    44 1   
    25     9    45 1   
    26    10    21 ar  
    27    10    22 ar  
    28    10    46 1   
    29    11    25 ar  
    30    11    47 1   
    31    12    16 1   
    32    12    17 1   
    33    12    20 1   
    34    12    48 1   
    35    13    18 1   
    36    13    20 1   
    37    13    49 1   
    38    13    76 1   
    39    14    17 1   
    40    14    18 1   
    41    14    50 1   
    42    14    51 1   
    43    15    75 2   
    44    16    52 1   
    45    16    75 1   
    46    17    53 1   
    47    17    54 1   
    48    18    19 1   
    49    19    55 1   
    50    19    56 1   
    51    19    57 1   
    52    20    58 1   
    53    20    59 1   
    54    21    25 ar  
    55    21    75 1   
    56    22    23 1   
    57    23    24 1   
    58    24    60 1   
    59    24    61 1   
    60    24    62 1   
    61    25    63 1   
    62    26    27 ar  
    63    26    74 1   
    64    27    28 ar  
    65    28    35 ar  
    66    29    64 1   
    67    29    65 1   
    68    30    66 1   
    69    30    67 1   
    70    31    68 1   
    71    31    69 1   
    72    31    73 1   
    73    33    34 1   
    74    33    35 1   
    75    34    70 1   
    76    34    71 1   
    77    34    72 1   
    78    39    73 1   
    79    40    73 1   
    80    41    73 1   
    81    74    77 1   
@<TRIPOS>SUBSTRUCTURE
     1 R78         1 TEMP              0 ****  ****    0 ROOT
