@<TRIPOS>MOLECULE
R7B
   31    33     1     0     0
SMALL
No Charge or Current Charge


@<TRIPOS>ATOM
      1 C4         -12.6430     9.6180    33.7740 cc         1 R7B       0.485300
      2 C5         -13.0560    10.9220    32.0950 cd         1 R7B       0.244900
      3 C6         -13.4290    11.5720    33.2470 cc         1 R7B      -0.189000
      4 C11         -9.6240     5.7290    34.1440 c6         1 R7B      -0.073400
      5 C7         -11.6720     7.2670    34.1360 c6         1 R7B      -0.000500
      6 C8         -12.5770     6.0520    34.4810 c6         1 R7B      -0.070400
      7 C9         -11.9700     4.7300    33.9460 c6         1 R7B      -0.073400
      8 C10        -10.5310     4.5180    34.4800 c6         1 R7B      -0.076400
      9 C12        -10.2320     7.0500    34.6790 c6         1 R7B      -0.070400
     10 N1         -13.1710    10.7540    34.3080 n          1 R7B      -0.149300
     11 N2         -13.0100     9.9470    36.4800 ns         1 R7B      -0.508600
     12 C3         -12.2670     8.5560    34.6870 cc         1 R7B      -0.204000
     13 N3         -12.5480     9.6600    32.4440 nd         1 R7B      -0.660000
     14 C1         -13.3830    10.9840    35.6680 c          1 R7B       0.573800
     15 C2         -12.4630     8.7470    36.0460 cd         1 R7B      -0.072400
     16 O1         -13.8600    12.0140    36.1190 o          1 R7B      -0.536000
     17 H1         -13.1170    11.2670    31.0700 h4         1 R7B       0.042100
     18 H2         -13.8600    12.5490    33.4270 h4         1 R7B       0.178000
     19 H4          -9.4870     5.7970    33.0560 hc         1 R7B       0.041700
     20 H5         -11.6010     7.3180    33.0410 hc         1 R7B       0.076700
     21 H6         -13.5780     6.1990    34.0510 hc         1 R7B       0.041700
     22 H7         -12.7140     5.9730    35.5680 hc         1 R7B       0.041700
     23 H8         -12.6050     3.8830    34.2400 hc         1 R7B       0.041700
     24 H9         -11.9590     4.7450    32.8480 hc         1 R7B       0.041700
     25 H10        -10.5590     4.3680    35.5680 hc         1 R7B       0.038700
     26 H11        -10.1050     3.6020    34.0490 hc         1 R7B       0.038700
     27 H12         -9.5930     7.8950    34.3870 hc         1 R7B       0.041700
     28 H13        -10.2370     7.0270    35.7770 hc         1 R7B       0.041700
     29 H14        -13.1690    10.1240    37.4700 hn         1 R7B       0.460000
     30 H15        -12.2210     8.0250    36.8250 h4         1 R7B       0.211000
     31 H3          -8.6250     5.5770    34.5750 hc         1 R7B       0.041700
@<TRIPOS>BOND
     1     1    10 1   
     2     1    12 1   
     3     1    13 2   
     4     2     3 2   
     5     2    13 1   
     6     2    17 1   
     7     3    10 1   
     8     3    18 1   
     9     4     8 1   
    10     4     9 1   
    11     4    19 1   
    12     4    31 1   
    13     5     6 1   
    14     5     9 1   
    15     5    12 1   
    16     5    20 1   
    17     6     7 1   
    18     6    21 1   
    19     6    22 1   
    20     7     8 1   
    21     7    23 1   
    22     7    24 1   
    23     8    25 1   
    24     8    26 1   
    25     9    27 1   
    26     9    28 1   
    27    10    14 1   
    28    11    14 1   
    29    11    15 1   
    30    11    29 1   
    31    12    15 2   
    32    14    16 2   
    33    15    30 1   
@<TRIPOS>SUBSTRUCTURE
     1 R7B         1 TEMP              0 ****  ****    0 ROOT
