@<TRIPOS>MOLECULE
R7B
   31    33     1     0     0
SMALL
abcg2


@<TRIPOS>ATOM
      1 C4         -12.7300     9.4810    33.8600 cc         1 R7B       0.485300
      2 C5         -13.7190    10.4170    32.2180 cd         1 R7B       0.244900
      3 C6         -13.9390    11.2480    33.2720 cc         1 R7B      -0.189000
      4 C11         -9.6850     5.5410    34.5690 c6         1 R7B      -0.073400
      5 C7         -11.3900     7.3660    34.2640 c6         1 R7B      -0.000500
      6 C8         -12.4720     6.2980    34.0450 c6         1 R7B      -0.070400
      7 C9         -11.8800     5.0220    33.4570 c6         1 R7B      -0.073400
      8 C10        -10.7530     4.4790    34.3280 c6         1 R7B      -0.076400
      9 C12        -10.2870     6.8100    35.1640 c6         1 R7B      -0.070400
     10 N1         -13.3010    10.6450    34.3320 n          1 R7B      -0.149300
     11 N2         -12.5010    10.2770    36.4310 ns         1 R7B      -0.508600
     12 C3         -11.9910     8.6490    34.7620 cc         1 R7B      -0.204000
     13 N3         -12.9730     9.3300    32.5850 nd         1 R7B      -0.660000
     14 C1         -13.2170    11.1120    35.6360 c          1 R7B       0.573800
     15 C2         -11.9100     9.1000    36.0290 cd         1 R7B      -0.072400
     16 O1         -13.7300    12.1490    35.9960 o          1 R7B      -0.536000
     17 H1         -14.0620    10.5470    31.2030 h4         1 R7B       0.042100
     18 H2         -14.4700    12.1780    33.3640 h4         1 R7B       0.178000
     19 H4          -9.1930     5.7850    33.6220 hc         1 R7B       0.041700
     20 H5         -10.9410     7.5830    33.2860 hc         1 R7B       0.076700
     21 H6         -13.2560     6.6850    33.3920 hc         1 R7B       0.041700
     22 H7         -12.9430     6.0760    35.0090 hc         1 R7B       0.041700
     23 H8         -12.6640     4.2710    33.3370 hc         1 R7B       0.041700
     24 H9         -11.4950     5.2320    32.4530 hc         1 R7B       0.041700
     25 H10        -11.1650     4.1590    35.2910 hc         1 R7B       0.038700
     26 H11        -10.3090     3.5930    33.8690 hc         1 R7B       0.038700
     27 H12         -9.5100     7.5640    35.3170 hc         1 R7B       0.041700
     28 H13        -10.6980     6.5750    36.1520 hc         1 R7B       0.041700
     29 H14        -12.3950    10.5600    37.3950 hn         1 R7B       0.460000
     30 H15        -11.3820     8.5800    36.8140 h4         1 R7B       0.211000
     31 H3          -8.9080     5.1550    35.2330 hc         1 R7B       0.041700
@<TRIPOS>BOND
     1     1    10 1   
     2     1    12 1   
     3     1    13 2   
     4     2     3 2   
     5     2    13 1   
     6     2    17 1   
     7     3    10 1   
     8     3    18 1   
     9     4     8 1   
    10     4     9 1   
    11     4    19 1   
    12     4    31 1   
    13     5     6 1   
    14     5     9 1   
    15     5    12 1   
    16     5    20 1   
    17     6     7 1   
    18     6    21 1   
    19     6    22 1   
    20     7     8 1   
    21     7    23 1   
    22     7    24 1   
    23     8    25 1   
    24     8    26 1   
    25     9    27 1   
    26     9    28 1   
    27    10    14 1   
    28    11    14 1   
    29    11    15 1   
    30    11    29 1   
    31    12    15 2   
    32    14    16 2   
    33    15    30 1   
@<TRIPOS>SUBSTRUCTURE
     1 R7B         1 TEMP              0 ****  ****    0 ROOT
