@<TRIPOS>MOLECULE
R7D
   46    47     1     0     0
SMALL
bcc


@<TRIPOS>ATOM
      1 SD          -4.1900    -9.2940   -26.9480 sh         1 R7D      -0.403900
      2 CE          -4.2200    -9.7930   -28.7040 c3         1 R7D       0.014700
      3 CAA         -5.6830    -5.2260   -29.3010 c3         1 R7D       0.123400
      4 CAB         -4.7200    -6.2980   -29.8170 c          1 R7D       0.626100
      5 CAM         -5.2980    -9.6070   -32.9510 c3         1 R7D       0.054700
      6 CAN         -5.3450   -11.1130   -32.8240 ca         1 R7D       0.393600
      7 CAP         -5.8080   -12.9380   -31.5370 ca         1 R7D       0.405200
      8 CAQ         -5.5060   -13.8200   -32.5620 ca         1 R7D      -0.244300
      9 CAR         -5.1010   -13.2910   -33.7790 ca         1 R7D      -0.084000
     10 CAS         -5.0150   -11.9160   -33.9120 ca         1 R7D      -0.229300
     11 CAY         -5.2290    -4.8380   -27.9070 ca         1 R7D      -0.089300
     12 CBA         -4.2160    -3.9000   -27.7320 ca         1 R7D      -0.115000
     13 CBB         -3.7780    -3.5730   -26.4610 ca         1 R7D      -0.076000
     14 CBC         -4.3500    -4.1820   -25.3470 ca         1 R7D      -0.189300
     15 CBD         -5.3600    -5.1170   -25.5130 ca         1 R7D      -0.076000
     16 CBE         -5.7950    -5.4370   -26.7910 ca         1 R7D      -0.115000
     17 CBF         -3.8590    -3.7930   -23.9890 c3         1 R7D       0.720200
     18 CX          -3.9290    -9.0660   -31.0350 c          1 R7D       0.668100
     19 CXA         -3.9270    -8.5810   -29.5840 c3         1 R7D       0.040700
     20 FBG         -2.5420    -4.0120   -23.8560 f          1 R7D      -0.234633
     21 FBH         -4.4680    -4.4600   -23.0060 f          1 R7D      -0.234633
     22 FBI         -4.0500    -2.4860   -23.7530 f          1 R7D      -0.234633
     23 NAO         -5.7340   -11.6180   -31.6610 nb         1 R7D      -0.689000
     24 NX          -4.8880    -7.5340   -29.3280 ns         1 R7D      -0.566900
     25 OAD         -3.8400    -6.0010   -30.6090 o          1 R7D      -0.588100
     26 OAZ         -5.7010    -4.1460   -30.1790 oh         1 R7D      -0.576800
     27 OX          -2.9330    -9.5880   -31.5080 o          1 R7D      -0.586100
     28 H1          -4.6380   -10.4520   -26.4530 hs         1 R7D       0.219800
     29 H2          -5.1940   -10.2150   -28.9530 h1         1 R7D       0.085200
     30 H3          -3.4600   -10.5500   -28.8860 h1         1 R7D       0.085200
     31 H4          -6.6900    -5.6520   -29.2350 h1         1 R7D       0.075700
     32 H5          -4.5250    -9.3210   -33.6670 h1         1 R7D       0.067700
     33 H6          -6.2450    -9.2480   -33.3580 h1         1 R7D       0.067700
     34 H7          -6.1250   -13.3130   -30.5700 h4         1 R7D       0.014100
     35 H8          -5.5820   -14.8880   -32.4060 ha         1 R7D       0.143000
     36 H9          -4.8480   -13.9400   -34.6080 ha         1 R7D       0.140000
     37 H10         -4.6910   -11.4670   -34.8420 ha         1 R7D       0.145000
     38 H11         -3.7620    -3.4110   -28.5840 ha         1 R7D       0.141000
     39 H12         -2.9890    -2.8400   -26.3500 ha         1 R7D       0.150000
     40 H13         -5.8250    -5.5980   -24.6640 ha         1 R7D       0.150000
     41 H14         -6.5980    -6.1560   -26.9070 ha         1 R7D       0.141000
     42 H15         -2.9180    -8.2170   -29.3700 h1         1 R7D       0.107700
     43 H16         -5.8910    -8.5880   -31.2050 hn         1 R7D       0.320500
     44 H17         -5.6160    -7.7030   -28.6480 hn         1 R7D       0.334500
     45 H18         -4.9050    -4.1980   -30.7260 ho         1 R7D       0.437000
     46 NAL         -5.0860    -8.9420   -31.6950 ns         1 R7D      -0.540900
@<TRIPOS>BOND
     1     1     2 1   
     2     1    28 1   
     3     2    19 1   
     4     2    29 1   
     5     2    30 1   
     6     3     4 1   
     7     3    11 1   
     8     3    26 1   
     9     3    31 1   
    10     4    24 1   
    11     4    25 2   
    12     5     6 1   
    13     5    32 1   
    14     5    33 1   
    15     5    46 1   
    16     6    10 ar  
    17     6    23 ar  
    18     7     8 ar  
    19     7    23 ar  
    20     7    34 1   
    21     8     9 ar  
    22     8    35 1   
    23     9    10 ar  
    24     9    36 1   
    25    10    37 1   
    26    11    12 ar  
    27    11    16 ar  
    28    12    13 ar  
    29    12    38 1   
    30    13    14 ar  
    31    13    39 1   
    32    14    15 ar  
    33    14    17 1   
    34    15    16 ar  
    35    15    40 1   
    36    16    41 1   
    37    17    20 1   
    38    17    21 1   
    39    17    22 1   
    40    18    19 1   
    41    18    27 2   
    42    18    46 1   
    43    19    24 1   
    44    19    42 1   
    45    24    44 1   
    46    26    45 1   
    47    43    46 1   
@<TRIPOS>SUBSTRUCTURE
     1 R7D         1 TEMP              0 ****  ****    0 ROOT
