@<TRIPOS>MOLECULE
R7D
   46    47     1     0     0
SMALL
No Charge or Current Charge


@<TRIPOS>ATOM
      1 SD          -1.6710    -7.3610   -28.1350 sh         1 R7D      -0.451800
      2 CE          -2.2910    -8.5460   -29.4260 c3         1 R7D       0.062600
      3 CAA         -5.3020    -4.8290   -29.7060 c3         1 R7D       0.146600
      4 CAB         -4.1590    -5.6110   -30.4260 c          1 R7D       0.559100
      5 CAM         -5.5000    -9.7880   -32.9310 c3         1 R7D       0.054700
      6 CAN         -5.9190   -11.0920   -32.2510 ca         1 R7D       0.328300
      7 CAP         -7.4700   -12.2050   -30.9260 ca         1 R7D       0.339900
      8 CAQ         -6.7310   -13.3990   -30.9830 ca         1 R7D      -0.161000
      9 CAR         -5.5300   -13.4270   -31.7100 ca         1 R7D      -0.066000
     10 CAS         -5.1210   -12.2480   -32.3540 ca         1 R7D      -0.146000
     11 CAY         -5.2670    -5.0440   -28.1910 ca         1 R7D      -0.089300
     12 CBA         -4.1200    -4.7110   -27.4450 ca         1 R7D      -0.097000
     13 CBB         -4.0820    -4.9280   -26.0580 ca         1 R7D      -0.058000
     14 CBC         -5.1930    -5.4860   -25.3890 ca         1 R7D      -0.189300
     15 CBD         -6.3470    -5.8060   -26.1360 ca         1 R7D      -0.058000
     16 CBE         -6.3810    -5.5890   -27.5240 ca         1 R7D      -0.097000
     17 CBF         -5.1550    -5.7150   -23.8730 c3         1 R7D       0.356300
     18 CX          -3.4980    -8.9220   -31.6520 c          1 R7D       0.601100
     19 CXA         -3.0020    -7.8680   -30.6210 c3         1 R7D       0.040700
     20 FBG         -3.9070    -5.9790   -23.4230 f          1 R7D      -0.113333
     21 FBH         -5.9300    -6.7570   -23.4910 f          1 R7D      -0.113333
     22 FBI         -5.5960    -4.6280   -23.2010 f          1 R7D      -0.113333
     23 NAO         -7.0780   -11.0670   -31.5460 nb         1 R7D      -0.689000
     24 NX          -4.0900    -6.9640   -30.1510 ns         1 R7D      -0.499900
     25 OAD         -3.3790    -5.0630   -31.1970 o          1 R7D      -0.588100
     26 OAZ         -5.2490    -3.4130   -30.0020 oh         1 R7D      -0.639000
     27 OX          -2.7630    -9.7910   -32.1020 o          1 R7D      -0.586100
     28 H1          -1.1540    -8.3000   -27.3030 hs         1 R7D       0.219800
     29 H2          -2.9860    -9.2460   -28.9430 h1         1 R7D       0.085200
     30 H3          -1.4370    -9.1300   -29.7970 h1         1 R7D       0.085200
     31 H4          -6.2380    -5.2510   -30.0950 h1         1 R7D       0.075700
     32 H5          -4.8330   -10.0130   -33.7730 h1         1 R7D       0.067700
     33 H6          -6.3910    -9.2970   -33.3440 h1         1 R7D       0.067700
     34 H7          -8.4040   -12.1560   -30.3680 h4         1 R7D       0.014100
     35 H8          -7.0900   -14.2850   -30.4670 ha         1 R7D       0.125000
     36 H9          -4.9340   -14.3350   -31.7720 ha         1 R7D       0.122000
     37 H10         -4.1960   -12.2260   -32.9230 ha         1 R7D       0.127000
     38 H11         -3.2500    -4.2850   -27.9410 ha         1 R7D       0.123000
     39 H12         -3.1830    -4.6590   -25.5060 ha         1 R7D       0.132000
     40 H13         -7.2240    -6.2230   -25.6450 ha         1 R7D       0.132000
     41 H14         -7.2810    -5.8470   -28.0800 ha         1 R7D       0.123000
     42 H15         -2.2540    -7.2690   -31.1550 h1         1 R7D       0.107700
     43 H16         -5.3710    -8.1030   -31.6000 hn         1 R7D       0.320500
     44 H17         -4.7350    -7.3110   -29.4480 hn         1 R7D       0.334500
     45 H18         -4.5540    -3.3100   -30.6940 ho         1 R7D       0.476000
     46 NAL         -4.8270    -8.8470   -32.0180 ns         1 R7D      -0.473900
@<TRIPOS>BOND
     1     1     2 1   
     2     1    28 1   
     3     2    19 1   
     4     2    29 1   
     5     2    30 1   
     6     3     4 1   
     7     3    11 1   
     8     3    26 1   
     9     3    31 1   
    10     4    24 1   
    11     4    25 2   
    12     5     6 1   
    13     5    32 1   
    14     5    33 1   
    15     5    46 1   
    16     6    10 ar  
    17     6    23 ar  
    18     7     8 ar  
    19     7    23 ar  
    20     7    34 1   
    21     8     9 ar  
    22     8    35 1   
    23     9    10 ar  
    24     9    36 1   
    25    10    37 1   
    26    11    12 ar  
    27    11    16 ar  
    28    12    13 ar  
    29    12    38 1   
    30    13    14 ar  
    31    13    39 1   
    32    14    15 ar  
    33    14    17 1   
    34    15    16 ar  
    35    15    40 1   
    36    16    41 1   
    37    17    20 1   
    38    17    21 1   
    39    17    22 1   
    40    18    19 1   
    41    18    27 2   
    42    18    46 1   
    43    19    24 1   
    44    19    42 1   
    45    24    44 1   
    46    26    45 1   
    47    43    46 1   
@<TRIPOS>SUBSTRUCTURE
     1 R7D         1 TEMP              0 ****  ****    0 ROOT
