@<TRIPOS>MOLECULE
R7E
   48    50     1     0     0
SMALL
abcg2


@<TRIPOS>ATOM
      1 N1          30.0180     0.4790     9.9000 ns         1 R7E      -0.495900
      2 C4          27.2350     2.4030     7.4240 c6         1 R7E       0.145300
      3 C5          27.2080     0.8850     7.6560 c6         1 R7E       0.146300
      4 C6          25.8130     0.3300     7.8530 c3         1 R7E      -0.090100
      5 C7          30.6420    -0.7260    10.0060 c          1 R7E       0.548600
      6 C8          31.1980    -1.0340    11.3240 cc         1 R7E       0.056500
      7 C10         32.1430    -1.8830    13.1600 cd         1 R7E      -0.186000
      8 C13         32.0930    -0.3600    15.8630 ca         1 R7E      -0.059000
      9 C15         31.6500     1.7160    16.9820 ca         1 R7E      -0.094000
     10 C17         31.1780     1.5000    14.6270 ca         1 R7E      -0.080000
     11 C1          29.3480     0.9020     8.7110 c6         1 R7E       0.307700
     12 O5          27.9730     0.5450     8.8210 os         1 R7E      -0.470000
     13 C3          28.6850     2.8470     7.2980 c6         1 R7E       0.187300
     14 O3          28.7470     4.2530     7.1010 oh         1 R7E      -0.645000
     15 C2          29.4940     2.4150     8.5130 c6         1 R7E       0.096300
     16 O2          30.8490     2.7710     8.2540 oh         1 R7E      -0.728000
     17 O4          26.6260     3.1240     8.4920 oh         1 R7E      -0.701000
     18 O7          30.7540    -1.5190     9.0720 o          1 R7E      -0.580100
     19 O8          31.0670    -0.1150    12.3320 os         1 R7E      -0.259000
     20 C11         31.6460    -0.6370    13.4510 cc         1 R7E       0.228500
     21 C9          31.8550    -2.1340    11.7940 cd         1 R7E      -0.088000
     22 C12         31.6340     0.1750    14.6550 ca         1 R7E      -0.139500
     23 C16         31.1890     2.2610    15.7870 ca         1 R7E      -0.114000
     24 C14         32.1060     0.3990    17.0290 ca         1 R7E      -0.087300
     25 C18         32.5800    -0.2090    18.3260 c3         1 R7E       0.195100
     26 N2          31.5930    -1.1750    18.8400 n8         1 R7E      -0.998200
     27 H1          29.9000     1.0350    10.7360 hn         1 R7E       0.328500
     28 H2          26.7220     2.6190     6.4810 h1         1 R7E       0.052700
     29 H3          27.6700     0.4110     6.7790 h1         1 R7E       0.044700
     30 H5          25.3500     0.7530     8.7460 hc         1 R7E       0.049700
     31 H6          25.1910     0.5650     6.9890 hc         1 R7E       0.049700
     32 H7          32.6600    -2.5360    13.8420 ha         1 R7E       0.148000
     33 H8          32.4390    -1.3850    15.9000 ha         1 R7E       0.125000
     34 H9          31.6580     2.3160    17.8840 ha         1 R7E       0.112000
     35 H10         30.8260     1.9300    13.7000 ha         1 R7E       0.121000
     36 H11         29.7990     0.3800     7.8630 h2         1 R7E       0.081700
     37 H12         29.1050     2.3330     6.4230 h1         1 R7E       0.044700
     38 H13         29.6820     4.4980     7.1050 ho         1 R7E       0.459000
     39 H14         29.1230     2.9310     9.4040 h1         1 R7E       0.071700
     40 H15         31.3460     2.7290     9.0790 ho         1 R7E       0.516000
     41 H16         25.6690     3.0370     8.4150 ho         1 R7E       0.504000
     42 H17         32.0990    -3.0150    11.2250 ha         1 R7E       0.159000
     43 H18         30.8390     3.2850    15.7590 ha         1 R7E       0.118000
     44 H19         33.5120    -0.7520    18.1540 h1         1 R7E       0.037700
     45 H20         32.7990     0.5980    19.0360 h1         1 R7E       0.037700
     46 H21         31.9450    -1.5910    19.6970 hn         1 R7E       0.397000
     47 H22         30.7400    -0.6850    19.0910 hn         1 R7E       0.397000
     48 H4          25.8520    -0.7540     7.9670 hc         1 R7E       0.049700
@<TRIPOS>BOND
     1     1     5 1   
     2     1    11 1   
     3     1    27 1   
     4     2     3 1   
     5     2    13 1   
     6     2    17 1   
     7     2    28 1   
     8     3     4 1   
     9     3    12 1   
    10     3    29 1   
    11     4    30 1   
    12     4    31 1   
    13     4    48 1   
    14     5     6 1   
    15     5    18 2   
    16     6    19 1   
    17     6    21 2   
    18     7    20 2   
    19     7    21 1   
    20     7    32 1   
    21     8    22 ar  
    22     8    24 ar  
    23     8    33 1   
    24     9    23 ar  
    25     9    24 ar  
    26     9    34 1   
    27    10    22 ar  
    28    10    23 ar  
    29    10    35 1   
    30    11    12 1   
    31    11    15 1   
    32    11    36 1   
    33    13    14 1   
    34    13    15 1   
    35    13    37 1   
    36    14    38 1   
    37    15    16 1   
    38    15    39 1   
    39    16    40 1   
    40    17    41 1   
    41    19    20 1   
    42    20    22 1   
    43    21    42 1   
    44    23    43 1   
    45    24    25 1   
    46    25    26 1   
    47    25    44 1   
    48    25    45 1   
    49    26    46 1   
    50    26    47 1   
@<TRIPOS>SUBSTRUCTURE
     1 R7E         1 TEMP              0 ****  ****    0 ROOT
