@<TRIPOS>MOLECULE
R7E
   48    50     1     0     0
SMALL
No Charge or Current Charge


@<TRIPOS>ATOM
      1 N1          30.0870     0.5540     9.7530 ns         1 R7E      -0.495900
      2 C4          27.1530     2.4020     7.2710 c6         1 R7E       0.145300
      3 C5          27.2650     0.8490     7.4560 c6         1 R7E       0.146300
      4 C6          25.8980     0.1410     7.6400 c3         1 R7E      -0.090100
      5 C7          30.5480    -0.7180     9.9950 c          1 R7E       0.548600
      6 C8          31.0090    -0.9190    11.3940 cc         1 R7E       0.056500
      7 C10         31.8290    -1.8230    13.2740 cd         1 R7E      -0.186000
      8 C13         32.0950    -0.4160    15.9430 ca         1 R7E      -0.059000
      9 C15         31.8600     1.6610    17.1890 ca         1 R7E      -0.094000
     10 C17         31.2630     1.5790    14.8310 ca         1 R7E      -0.080000
     11 C1          29.4340     0.9850     8.5230 c6         1 R7E       0.307700
     12 O5          28.0660     0.5370     8.6190 os         1 R7E      -0.470000
     13 C3          28.6140     2.9490     7.1270 c6         1 R7E       0.187300
     14 O3          28.6600     4.3750     6.9470 oh         1 R7E      -0.645000
     15 C2          29.4740     2.5450     8.3640 c6         1 R7E       0.096300
     16 O2          30.8260     3.0510     8.2100 oh         1 R7E      -0.728000
     17 O4          26.4670     3.0280     8.3870 oh         1 R7E      -0.701000
     18 O7          30.5780    -1.5800     9.1250 o          1 R7E      -0.580100
     19 O8          30.9780     0.0660    12.3650 os         1 R7E      -0.259000
     20 C11         31.4830    -0.5170    13.5030 cc         1 R7E       0.228500
     21 C9          31.5230    -2.0790    11.9190 cd         1 R7E      -0.088000
     22 C12         31.6180     0.2140    14.7700 ca         1 R7E      -0.139500
     23 C16         31.3840     2.2960    16.0320 ca         1 R7E      -0.114000
     24 C14         32.2180     0.3010    17.1500 ca         1 R7E      -0.087300
     25 C18         32.7430    -0.3920    18.4010 c3         1 R7E       0.195100
     26 N2          31.6750    -1.1320    19.0980 n8         1 R7E      -0.998200
     27 H1          30.0610     1.1750    10.5520 hn         1 R7E       0.328500
     28 H2          26.6130     2.6040     6.3340 h1         1 R7E       0.052700
     29 H3          27.7490     0.4160     6.5680 h1         1 R7E       0.044700
     30 H5          25.4000     0.4500     8.5660 hc         1 R7E       0.049700
     31 H6          25.2250     0.3600     6.8020 hc         1 R7E       0.049700
     32 H7          32.2530    -2.5260    13.9820 ha         1 R7E       0.148000
     33 H8          32.3730    -1.4660    15.9330 ha         1 R7E       0.125000
     34 H9          31.9510     2.2250    18.1150 ha         1 R7E       0.112000
     35 H10         30.8920     2.0910    13.9460 ha         1 R7E       0.121000
     36 H11         29.9260     0.5080     7.6600 h2         1 R7E       0.081700
     37 H12         29.0590     2.4670     6.2440 h1         1 R7E       0.044700
     38 H13         29.5640     4.6200     7.2480 ho         1 R7E       0.459000
     39 H14         29.0110     2.9840     9.2610 h1         1 R7E       0.071700
     40 H15         31.3710     2.6690     8.9390 ho         1 R7E       0.516000
     41 H16         25.5390     2.7020     8.3750 ho         1 R7E       0.504000
     42 H17         31.6650    -3.0140    11.3860 ha         1 R7E       0.159000
     43 H18         31.1070     3.3480    16.0660 ha         1 R7E       0.118000
     44 H19         33.5430    -1.0950    18.1290 h1         1 R7E       0.037700
     45 H20         33.1670     0.3530    19.0900 h1         1 R7E       0.037700
     46 H21         32.0490    -1.5040    19.9800 hn         1 R7E       0.397000
     47 H22         30.9580    -0.4620    19.4010 hn         1 R7E       0.397000
     48 H4          26.0280    -0.9470     7.6820 hc         1 R7E       0.049700
@<TRIPOS>BOND
     1     1     5 1   
     2     1    11 1   
     3     1    27 1   
     4     2     3 1   
     5     2    13 1   
     6     2    17 1   
     7     2    28 1   
     8     3     4 1   
     9     3    12 1   
    10     3    29 1   
    11     4    30 1   
    12     4    31 1   
    13     4    48 1   
    14     5     6 1   
    15     5    18 2   
    16     6    19 1   
    17     6    21 2   
    18     7    20 2   
    19     7    21 1   
    20     7    32 1   
    21     8    22 ar  
    22     8    24 ar  
    23     8    33 1   
    24     9    23 ar  
    25     9    24 ar  
    26     9    34 1   
    27    10    22 ar  
    28    10    23 ar  
    29    10    35 1   
    30    11    12 1   
    31    11    15 1   
    32    11    36 1   
    33    13    14 1   
    34    13    15 1   
    35    13    37 1   
    36    14    38 1   
    37    15    16 1   
    38    15    39 1   
    39    16    40 1   
    40    17    41 1   
    41    19    20 1   
    42    20    22 1   
    43    21    42 1   
    44    23    43 1   
    45    24    25 1   
    46    25    26 1   
    47    25    44 1   
    48    25    45 1   
    49    26    46 1   
    50    26    47 1   
@<TRIPOS>SUBSTRUCTURE
     1 R7E         1 TEMP              0 ****  ****    0 ROOT
