@<TRIPOS>MOLECULE
R7F
   50    53     1     0     0
SMALL
abcg2


@<TRIPOS>ATOM
      1 N1         -20.1740     4.5620    27.0780 ns         1 R7F      -0.173000
      2 C4         -16.9090     8.4470    26.3050 ca         1 R7F      -0.100000
      3 C5         -16.2840     7.3080    25.8750 ca         1 R7F      -0.084000
      4 C6         -16.9410     6.0580    25.9560 ca         1 R7F      -0.090000
      5 C7         -16.3490     4.8590    25.4990 ca         1 R7F       0.357900
      6 C8         -18.1870     3.6280    26.0770 ca         1 R7F       0.311900
      7 C10        -20.4930     4.7610    28.3840 c          1 R7F       0.596100
      8 C13        -22.2910     6.8790    29.8080 c6         1 R7F       0.214800
      9 C15        -22.6600     4.2370    32.4300 ca         1 R7F      -0.179000
     10 C17        -22.2310     2.0790    31.4890 ca         1 R7F       0.074000
     11 C20        -18.2530     6.0030    26.4960 ca         1 R7F       0.000000
     12 C21        -18.8770     7.1990    26.9170 ca         1 R7F      -0.079000
     13 CL         -22.0590     0.3400    31.6820 cl         1 R7F      -0.220000
     14 C16        -22.5210     2.8700    32.5940 ca         1 R7F      -0.049000
     15 C18        -22.0720     2.6510    30.2370 ca         1 R7F      -0.049000
     16 C19        -22.1990     4.0250    30.0630 ca         1 R7F      -0.139300
     17 C14        -22.5070     4.8410    31.1690 ca         1 R7F       0.343000
     18 N2         -22.7090     6.1960    31.0220 nu         1 R7F      -0.956200
     19 C12        -22.6430     6.0240    28.6010 c6         1 R7F      -0.079400
     20 C11        -21.9830     4.6330    28.6980 c6         1 R7F      -0.079400
     21 O1         -19.6600     5.0740    29.2270 o          1 R7F      -0.572100
     22 C9         -18.8640     4.7220    26.5560 ca         1 R7F      -0.074000
     23 N          -16.9420     3.6860    25.5430 nb         1 R7F      -0.651000
     24 C3         -18.2280     8.4050    26.8320 ca         1 R7F      -0.091300
     25 C1         -18.8980     9.7040    27.2800 c3         1 R7F       0.223300
     26 O          -20.2120     9.4550    27.8000 oh         1 R7F      -0.666000
     27 C2         -19.1140    10.6210    26.0760 c3         1 R7F      -0.097600
     28 C          -18.0580    10.3960    28.3580 c3         1 R7F      -0.097600
     29 H1         -20.8820     4.1900    26.4640 hn         1 R7F       0.157000
     30 H3         -15.2830     7.3490    25.4640 ha         1 R7F       0.119000
     31 H4         -15.3460     4.8940    25.0810 h4         1 R7F       0.022100
     32 H5         -18.6540     2.6510    26.1170 h4         1 R7F       0.023100
     33 H6         -21.2130     7.0830    29.8160 h1         1 R7F       0.047200
     34 H7         -22.8100     7.8360    29.7560 h1         1 R7F       0.047200
     35 H8         -22.8920     4.8590    33.2870 ha         1 R7F       0.116000
     36 H9         -19.8830     7.1600    27.3020 ha         1 R7F       0.125000
     37 H10        -22.6410     2.4230    33.5720 ha         1 R7F       0.127000
     38 H11        -21.8400     2.0270    29.3820 ha         1 R7F       0.121000
     39 H12        -22.6690     6.7390    31.8710 hn         1 R7F       0.476000
     40 H13        -22.3350     6.5280    27.6840 hc         1 R7F       0.061200
     41 H14        -23.7260     5.8880    28.5570 hc         1 R7F       0.061200
     42 H15        -22.4350     3.9840    27.9450 hc         1 R7F       0.062700
     43 H16        -20.1290     8.9950    28.6460 ho         1 R7F       0.443000
     44 H17        -19.5950    11.5440    26.4020 hc         1 R7F       0.046867
     45 H18        -18.1650    10.8700    25.6020 hc         1 R7F       0.046867
     46 H19        -19.7520    10.1300    25.3400 hc         1 R7F       0.046867
     47 H20        -17.9460     9.7430    29.2270 hc         1 R7F       0.046867
     48 H21        -17.0640    10.6470    27.9900 hc         1 R7F       0.046867
     49 H22        -18.5560    11.3160    28.6680 hc         1 R7F       0.046867
     50 H2         -16.3910     9.3940    26.2330 ha         1 R7F       0.116000
@<TRIPOS>BOND
     1     1     7 1   
     2     1    22 1   
     3     1    29 1   
     4     2     3 ar  
     5     2    24 ar  
     6     2    50 1   
     7     3     4 ar  
     8     3    30 1   
     9     4     5 ar  
    10     4    11 ar  
    11     5    23 ar  
    12     5    31 1   
    13     6    22 ar  
    14     6    23 ar  
    15     6    32 1   
    16     7    20 1   
    17     7    21 2   
    18     8    18 1   
    19     8    19 1   
    20     8    33 1   
    21     8    34 1   
    22     9    14 ar  
    23     9    17 ar  
    24     9    35 1   
    25    10    13 1   
    26    10    14 ar  
    27    10    15 ar  
    28    11    12 ar  
    29    11    22 ar  
    30    12    24 ar  
    31    12    36 1   
    32    14    37 1   
    33    15    16 ar  
    34    15    38 1   
    35    16    17 ar  
    36    16    20 1   
    37    17    18 1   
    38    18    39 1   
    39    19    20 1   
    40    19    40 1   
    41    19    41 1   
    42    20    42 1   
    43    24    25 1   
    44    25    26 1   
    45    25    27 1   
    46    25    28 1   
    47    26    43 1   
    48    27    44 1   
    49    27    45 1   
    50    27    46 1   
    51    28    47 1   
    52    28    48 1   
    53    28    49 1   
@<TRIPOS>SUBSTRUCTURE
     1 R7F         1 TEMP              0 ****  ****    0 ROOT
