@<TRIPOS>MOLECULE
R7F
   50    53     1     0     0
SMALL
No Charge or Current Charge


@<TRIPOS>ATOM
      1 N1         -20.1200     4.5740    27.0090 ns         1 R7F      -0.173000
      2 C4         -16.6610     8.3870    26.4580 ca         1 R7F      -0.100000
      3 C5         -16.1400     7.2380    25.8410 ca         1 R7F      -0.084000
      4 C6         -16.8800     6.0440    25.8260 ca         1 R7F      -0.090000
      5 C7         -16.3740     4.8940    25.1860 ca         1 R7F       0.357900
      6 C8         -18.2660     3.6730    25.7140 ca         1 R7F       0.311900
      7 C10        -20.4950     4.7660    28.3300 c          1 R7F       0.596100
      8 C13        -22.6340     6.8960    29.4660 c6         1 R7F       0.214800
      9 C15        -22.9650     4.4650    32.3490 ca         1 R7F      -0.179000
     10 C17        -22.1730     2.2600    31.6930 ca         1 R7F       0.074000
     11 C20        -18.1460     5.9880    26.4420 ca         1 R7F       0.000000
     12 C21        -18.6700     7.1540    27.0430 ca         1 R7F      -0.079000
     13 Cl         -21.8070     0.5890    32.1030 cl         1 R7F      -0.220000
     14 C16        -22.6730     3.1290    32.6770 ca         1 R7F      -0.049000
     15 C18        -21.9640     2.7200    30.3820 ca         1 R7F      -0.049000
     16 C19        -22.2550     4.0590    30.0490 ca         1 R7F      -0.139300
     17 C14        -22.7560     4.9320    31.0420 ca         1 R7F       0.343000
     18 N2         -23.0680     6.2550    30.7200 nu         1 R7F      -0.956200
     19 C12        -22.7980     5.8760    28.3160 c6         1 R7F      -0.079400
     20 C11        -22.0030     4.5720    28.6170 c6         1 R7F      -0.079400
     21 O1         -19.6830     5.0190    29.2140 o          1 R7F      -0.572100
     22 C9         -18.8500     4.7580    26.4000 ca         1 R7F      -0.074000
     23 N          -17.0530     3.7260    25.1190 nb         1 R7F      -0.651000
     24 C3         -17.9380     8.3640    27.0680 ca         1 R7F      -0.091300
     25 C1         -18.5680     9.6080    27.7340 c3         1 R7F       0.223300
     26 O          -19.0420     9.2380    29.0290 oh         1 R7F      -0.666000
     27 C2         -19.7860    10.0900    26.9150 c3         1 R7F      -0.097600
     28 C          -17.5790    10.7810    27.9460 c3         1 R7F      -0.097600
     29 H1         -20.8610     4.2840    26.3830 hn         1 R7F       0.157000
     30 H3         -15.1610     7.2820    25.3670 ha         1 R7F       0.119000
     31 H4         -15.4000     4.9110    24.6990 h4         1 R7F       0.022100
     32 H5         -18.7860     2.7170    25.6520 h4         1 R7F       0.023100
     33 H6         -21.5770     7.1960    29.5360 h1         1 R7F       0.047200
     34 H7         -23.2240     7.8020    29.2610 h1         1 R7F       0.047200
     35 H8         -23.3550     5.1340    33.1100 ha         1 R7F       0.116000
     36 H9         -19.6580     7.1390    27.4900 ha         1 R7F       0.125000
     37 H10        -22.8340     2.7680    33.6900 ha         1 R7F       0.127000
     38 H11        -21.5740     2.0400    29.6300 ha         1 R7F       0.121000
     39 H12        -23.3850     6.8470    31.4910 hn         1 R7F       0.476000
     40 H13        -22.4750     6.3220    27.3650 hc         1 R7F       0.061200
     41 H14        -23.8650     5.6380    28.1990 hc         1 R7F       0.061200
     42 H15        -22.3720     3.8510    27.8740 hc         1 R7F       0.062700
     43 H16        -18.3090     8.7510    29.4620 ho         1 R7F       0.443000
     44 H17        -20.2530    10.9650    27.3830 hc         1 R7F       0.046867
     45 H18        -19.4800    10.3690    25.9000 hc         1 R7F       0.046867
     46 H19        -20.5480     9.3050    26.8340 hc         1 R7F       0.046867
     47 H20        -16.6970    10.4570    28.5110 hc         1 R7F       0.046867
     48 H21        -17.2460    11.1930    26.9860 hc         1 R7F       0.046867
     49 H22        -18.0560    11.5960    28.5050 hc         1 R7F       0.046867
     50 H2         -16.0590     9.2910    26.4390 ha         1 R7F       0.116000
@<TRIPOS>BOND
     1     1     7 1   
     2     1    22 1   
     3     1    29 1   
     4     2     3 ar  
     5     2    24 ar  
     6     2    50 1   
     7     3     4 ar  
     8     3    30 1   
     9     4     5 ar  
    10     4    11 ar  
    11     5    23 ar  
    12     5    31 1   
    13     6    22 ar  
    14     6    23 ar  
    15     6    32 1   
    16     7    20 1   
    17     7    21 2   
    18     8    18 1   
    19     8    19 1   
    20     8    33 1   
    21     8    34 1   
    22     9    14 ar  
    23     9    17 ar  
    24     9    35 1   
    25    10    13 1   
    26    10    14 ar  
    27    10    15 ar  
    28    11    12 ar  
    29    11    22 ar  
    30    12    24 ar  
    31    12    36 1   
    32    14    37 1   
    33    15    16 ar  
    34    15    38 1   
    35    16    17 ar  
    36    16    20 1   
    37    17    18 1   
    38    18    39 1   
    39    19    20 1   
    40    19    40 1   
    41    19    41 1   
    42    20    42 1   
    43    24    25 1   
    44    25    26 1   
    45    25    27 1   
    46    25    28 1   
    47    26    43 1   
    48    27    44 1   
    49    27    45 1   
    50    27    46 1   
    51    28    47 1   
    52    28    48 1   
    53    28    49 1   
@<TRIPOS>SUBSTRUCTURE
     1 R7F         1 TEMP              0 ****  ****    0 ROOT
