@<TRIPOS>MOLECULE
R7H
   60    61     1     0     0
SMALL
No Charge or Current Charge


@<TRIPOS>ATOM
      1 CAM         -4.5690     4.0350    21.0720 c3         1 R7H       0.047300
      2 CAI         -9.1000    -0.8260    25.5420 c3         1 R7H       0.155600
      3 CAL        -10.2780    -1.7990    25.7030 c3         1 R7H      -0.092100
      4 CAJ         -7.2020     0.5630    23.5970 c3         1 R7H       0.040600
      5 CAV         -5.1430     3.0920    22.0990 cc         1 R7H       0.212300
      6 C1          -1.8190    -2.9160    15.9380 c          1 R7H       0.736000
      7 C2          -0.7040    -2.0920    16.6820 c6         1 R7H       0.018300
      8 C3           0.4990    -2.9970    17.0580 c6         1 R7H      -0.087400
      9 C4           1.5960    -2.1840    17.7870 c6         1 R7H       0.157300
     10 C5           0.9970    -1.4210    19.0020 c6         1 R7H       0.018700
     11 C6          -0.1880    -0.5370    18.4940 c6         1 R7H       0.140300
     12 C10          2.0370    -0.3820    21.0720 c          1 R7H       0.599100
     13 C11          3.2120     0.4440    21.5730 c3         1 R7H      -0.179100
     14 C7          -0.8870     0.3080    19.6260 c3         1 R7H       0.201300
     15 C8          -2.0940     1.1580    19.1120 c3         1 R7H       0.181300
     16 C9          -2.7670     1.9930    20.2290 c3         1 R7H       0.041600
     17 N5           2.0370    -0.6450    19.7210 ns         1 R7H      -0.498900
     18 O10          1.1420    -0.7780    21.8060 o          1 R7H      -0.631100
     19 O1A         -1.9080    -2.7020    14.7350 o          1 R7H      -0.711500
     20 O1B         -2.8260    -3.2000    16.5760 o          1 R7H      -0.711500
     21 O4           2.6440    -3.0590    18.2150 oh         1 R7H      -0.655000
     22 O6          -1.1760    -1.4000    17.8760 os         1 R7H      -0.392000
     23 O7          -1.2970    -0.5140    20.7400 oh         1 R7H      -0.723000
     24 O8          -1.6830     2.0630    18.0680 oh         1 R7H      -0.667000
     25 S9          -4.0380     3.1570    19.5250 ss         1 R7H      -0.454000
     26 CAD         -6.1660     2.2090    21.9440 cd         1 R7H      -0.204000
     27 CAG         -8.4860     1.1470    24.2280 c3         1 R7H       0.143600
     28 NAP         -4.6460     3.0280    23.3700 nc         1 R7H      -0.350000
     29 NAS         -5.3220     2.1250    24.0350 nd         1 R7H      -0.206800
     30 NAZ         -6.2590     1.6080    23.1780 na         1 R7H       0.121800
     31 OAA         -9.4370     0.0880    24.4810 os         1 R7H      -0.455000
     32 H81         -5.3290     4.7840    20.8140 h1         1 R7H       0.073700
     33 H71         -3.7060     4.5630    21.4990 h1         1 R7H       0.073700
     34 H16         -8.9390    -0.2880    26.4850 h1         1 R7H       0.026200
     35 H15         -8.1940    -1.3970    25.3040 h1         1 R7H       0.026200
     36 H14        -10.0700    -2.5170    26.5050 hc         1 R7H       0.043033
     37 H1         -11.1960    -1.2560    25.9570 hc         1 R7H       0.043033
     38 H13        -10.4470    -2.3590    24.7750 hc         1 R7H       0.043033
     39 H41         -6.6930    -0.0890    24.3160 h1         1 R7H       0.074700
     40 H51         -7.4690    -0.0370    22.7190 h1         1 R7H       0.074700
     41 H9          -0.3490    -1.3270    15.9750 h1         1 R7H       0.011700
     42 H3           0.1530    -3.8210    17.6970 hc         1 R7H       0.069200
     43 H10          0.9170    -3.4550    16.1520 hc         1 R7H       0.069200
     44 H4           2.0040    -1.4440    17.0830 h1         1 R7H       0.011700
     45 H5           0.5860    -2.1720    19.6940 h1         1 R7H       0.103700
     46 H6           0.1890     0.1640    17.7350 h1         1 R7H       0.031700
     47 H112         4.1460    -0.0540    21.2880 hc         1 R7H       0.055033
     48 H111         3.2620     1.3770    21.0000 hc         1 R7H       0.055033
     49 H113         3.1660     0.6330    22.6510 hc         1 R7H       0.055033
     50 H7          -0.1390     1.0250    19.9870 h1         1 R7H       0.011700
     51 H8          -2.8500     0.4630    18.7210 h1         1 R7H       0.100700
     52 H92         -3.2510     1.3190    20.9480 h1         1 R7H       0.077700
     53 H91         -2.0040     2.5730    20.7650 h1         1 R7H       0.077700
     54 HN5          2.7980    -0.2400    19.1860 hn         1 R7H       0.302500
     55 HO4          3.0970    -2.5990    18.9540 ho         1 R7H       0.422000
     56 HO7         -0.4520    -0.7140    21.2360 ho         1 R7H       0.530000
     57 HO8         -2.3870     2.7500    18.0370 ho         1 R7H       0.452000
     58 H61         -6.7940     1.9720    21.0950 h4         1 R7H       0.167000
     59 H31         -8.2370     1.6840    25.1530 h1         1 R7H       0.059700
     60 H2          -8.9200     1.8730    23.5280 h1         1 R7H       0.059700
@<TRIPOS>BOND
     1     1     5 1   
     2     1    25 1   
     3     1    32 1   
     4     1    33 1   
     5     2     3 1   
     6     2    31 1   
     7     2    34 1   
     8     2    35 1   
     9     3    36 1   
    10     3    37 1   
    11     3    38 1   
    12     4    27 1   
    13     4    30 1   
    14     4    39 1   
    15     4    40 1   
    16     5    26 2   
    17     5    28 1   
    18     6     7 1   
    19     6    19 1   
    20     6    20 1   
    21     7     8 1   
    22     7    22 1   
    23     7    41 1   
    24     8     9 1   
    25     8    42 1   
    26     8    43 1   
    27     9    10 1   
    28     9    21 1   
    29     9    44 1   
    30    10    11 1   
    31    10    17 1   
    32    10    45 1   
    33    11    14 1   
    34    11    22 1   
    35    11    46 1   
    36    12    13 1   
    37    12    17 1   
    38    12    18 2   
    39    13    47 1   
    40    13    48 1   
    41    13    49 1   
    42    14    15 1   
    43    14    23 1   
    44    14    50 1   
    45    15    16 1   
    46    15    24 1   
    47    15    51 1   
    48    16    25 1   
    49    16    52 1   
    50    16    53 1   
    51    17    54 1   
    52    21    55 1   
    53    23    56 1   
    54    24    57 1   
    55    26    30 1   
    56    26    58 1   
    57    27    31 1   
    58    27    59 1   
    59    27    60 1   
    60    28    29 2   
    61    29    30 1   
@<TRIPOS>SUBSTRUCTURE
     1 R7H         1 TEMP              0 ****  ****    0 ROOT
