@<TRIPOS>MOLECULE
R7H
   60    61     1     0     0
SMALL
bcc


@<TRIPOS>ATOM
      1 CAM         -5.1390     2.5800    20.5420 c3         1 R7H      -0.000600
      2 CAI         -9.4610     0.0700    26.6730 c3         1 R7H       0.132400
      3 CAL        -10.7300    -0.0850    27.4790 c3         1 R7H      -0.092100
      4 CAJ         -8.3090     0.5810    23.8460 c3         1 R7H       0.011300
      5 CAV         -5.7960     1.8600    21.6600 cc         1 R7H       0.277600
      6 C1          -0.3600    -1.7690    14.8030 c          1 R7H       0.946600
      7 C2           0.4350    -1.2120    16.0050 c6         1 R7H      -0.004900
      8 C3           1.6540    -2.0580    16.3460 c6         1 R7H      -0.087400
      9 C4           2.3940    -1.4660    17.5320 c6         1 R7H       0.134100
     10 C5           1.4260    -1.2340    18.6960 c6         1 R7H       0.018700
     11 C6           0.2010    -0.4370    18.2100 c6         1 R7H       0.117100
     12 C10          1.9360    -0.8160    21.0790 c          1 R7H       0.666100
     13 C11          2.8080    -0.0420    22.0310 c3         1 R7H      -0.179100
     14 C7          -0.8480    -0.2360    19.3120 c3         1 R7H       0.178100
     15 C8          -2.1130     0.4380    18.7700 c3         1 R7H       0.158100
     16 C9          -3.0910     0.7440    19.9040 c3         1 R7H      -0.006300
     17 N5           2.1220    -0.5620    19.7740 ns         1 R7H      -0.565900
     18 O10          1.1140    -1.6330    21.4910 o          1 R7H      -0.631100
     19 O1A          0.3290    -1.9920    13.7870 o          1 R7H      -0.816800
     20 O1B         -1.5830    -1.9230    14.9390 o          1 R7H      -0.816800
     21 O4           3.4400    -2.3380    17.8870 oh         1 R7H      -0.592800
     22 O6          -0.4020    -1.1020    17.1350 os         1 R7H      -0.345600
     23 O7          -1.2330    -1.4490    19.9080 oh         1 R7H      -0.600800
     24 O8          -1.7120     1.6200    18.1200 oh         1 R7H      -0.604800
     25 S9          -4.6000     1.4840    19.1910 ss         1 R7H      -0.358200
     26 CAD         -7.1300     1.7660    21.9680 cd         1 R7H      -0.236600
     27 CAG         -8.4560     1.4920    25.0670 c3         1 R7H       0.120400
     28 NAP         -5.1140     1.1300    22.5700 nc         1 R7H      -0.350000
     29 NAS         -5.9450     0.6010    23.4010 nd         1 R7H      -0.206800
     30 NAZ         -7.1640     0.9700    23.0490 na         1 R7H       0.100400
     31 OAA         -9.5980     1.1860    25.8140 os         1 R7H      -0.408600
     32 H81         -5.8350     3.2860    20.0890 h1         1 R7H       0.073700
     33 H71         -4.2750     3.1480    20.8890 h1         1 R7H       0.073700
     34 H16         -8.6010     0.2130    27.3410 h1         1 R7H       0.026200
     35 H15         -9.2710    -0.8490    26.1050 h1         1 R7H       0.026200
     36 H14        -10.6360    -0.9350    28.1530 hc         1 R7H       0.043033
     37 H1         -10.9290     0.8020    28.0820 hc         1 R7H       0.043033
     38 H13        -11.5910    -0.2630    26.8340 hc         1 R7H       0.043033
     39 H41         -8.1760    -0.4620    24.1320 h1         1 R7H       0.074700
     40 H51         -9.1940     0.6470    23.2140 h1         1 R7H       0.074700
     41 H9           0.7910    -0.2050    15.7220 h1         1 R7H       0.011700
     42 H3           1.3400    -3.0800    16.5860 hc         1 R7H       0.069200
     43 H10          2.3200    -2.1110    15.4850 hc         1 R7H       0.069200
     44 H4           2.7930    -0.4830    17.2290 h1         1 R7H       0.011700
     45 H5           1.1010    -2.2140    19.0550 h1         1 R7H       0.103700
     46 H6           0.5600     0.5580    17.8990 h1         1 R7H       0.031700
     47 H112         3.3980    -0.7410    22.6230 hc         1 R7H       0.055033
     48 H111         3.4860     0.6510    21.5370 hc         1 R7H       0.055033
     49 H113         2.1790     0.5190    22.7220 hc         1 R7H       0.055033
     50 H7          -0.4110     0.4510    20.0520 h1         1 R7H       0.011700
     51 H8          -2.6010    -0.2540    18.0690 h1         1 R7H       0.100700
     52 H92         -3.3460    -0.1550    20.4580 h1         1 R7H       0.077700
     53 H91         -2.6470     1.4640    20.5950 h1         1 R7H       0.077700
     54 HN5          2.7400     0.1970    19.5240 hn         1 R7H       0.302500
     55 HO4          3.9440    -1.9390    18.6050 ho         1 R7H       0.383000
     56 HO7         -0.5300    -1.7000    20.5300 ho         1 R7H       0.431000
     57 HO8         -2.5090     2.1210    17.9060 ho         1 R7H       0.413000
     58 H61         -8.0140     2.1820    21.5140 h4         1 R7H       0.185000
     59 H31         -7.5450     1.4330    25.6770 h1         1 R7H       0.059700
     60 H2          -8.5560     2.5250    24.7260 h1         1 R7H       0.059700
@<TRIPOS>BOND
     1     1     5 1   
     2     1    25 1   
     3     1    32 1   
     4     1    33 1   
     5     2     3 1   
     6     2    31 1   
     7     2    34 1   
     8     2    35 1   
     9     3    36 1   
    10     3    37 1   
    11     3    38 1   
    12     4    27 1   
    13     4    30 1   
    14     4    39 1   
    15     4    40 1   
    16     5    26 2   
    17     5    28 1   
    18     6     7 1   
    19     6    19 1   
    20     6    20 1   
    21     7     8 1   
    22     7    22 1   
    23     7    41 1   
    24     8     9 1   
    25     8    42 1   
    26     8    43 1   
    27     9    10 1   
    28     9    21 1   
    29     9    44 1   
    30    10    11 1   
    31    10    17 1   
    32    10    45 1   
    33    11    14 1   
    34    11    22 1   
    35    11    46 1   
    36    12    13 1   
    37    12    17 1   
    38    12    18 2   
    39    13    47 1   
    40    13    48 1   
    41    13    49 1   
    42    14    15 1   
    43    14    23 1   
    44    14    50 1   
    45    15    16 1   
    46    15    24 1   
    47    15    51 1   
    48    16    25 1   
    49    16    52 1   
    50    16    53 1   
    51    17    54 1   
    52    21    55 1   
    53    23    56 1   
    54    24    57 1   
    55    26    30 1   
    56    26    58 1   
    57    27    31 1   
    58    27    59 1   
    59    27    60 1   
    60    28    29 2   
    61    29    30 1   
@<TRIPOS>SUBSTRUCTURE
     1 R7H         1 TEMP              0 ****  ****    0 ROOT
