@<TRIPOS>MOLECULE
R7I
   56    59     1     0     0
SMALL
No Charge or Current Charge


@<TRIPOS>ATOM
      1 O1B         -0.1970     0.4390     2.6440 o          1 R7I      -0.852000
      2 PB           1.1430     1.0750     2.4880 p5         1 R7I       1.465800
      3 O2B          1.5080     1.9190     3.6650 o          1 R7I      -0.852000
      4 O5D          2.2660    -0.0730     2.3240 os         1 R7I      -0.566400
      5 C5D          2.0870    -1.1610     1.3970 c3         1 R7I       0.232600
      6 C4D          2.7990    -0.8500     0.0490 c5         1 R7I       0.172300
      7 C3D          2.7140    -1.9900    -1.0090 c5         1 R7I       0.131300
      8 O3D          1.4240    -2.1740    -1.6030 oh         1 R7I      -0.674000
      9 C2D          3.7720    -1.4630    -2.0240 c5         1 R7I       0.100300
     10 O2D          3.2670    -0.3710    -2.8070 oh         1 R7I      -0.692000
     11 C1D          4.8770    -0.9390    -1.0260 c5         1 R7I       0.352300
     12 O1D          5.4040     0.3030    -1.4740 oh         1 R7I      -0.740000
     13 O4D          4.2310    -0.7340     0.2400 os         1 R7I      -0.427000
     14 O3A          1.3830     1.7910     1.1040 os         1 R7I      -0.702800
     15 PA           0.6010     3.1530     0.9930 p5         1 R7I       1.476800
     16 O2A          1.3330     4.2750     1.6530 o          1 R7I      -0.849000
     17 O1A         -0.8400     3.1150     1.3790 o          1 R7I      -0.849000
     18 O5           0.7250     3.3440    -0.6070 os         1 R7I      -0.576400
     19 C5          -0.2050     2.7480    -1.5280 c3         1 R7I       0.226600
     20 C4           0.1230     1.2440    -1.7850 c5         1 R7I       0.139300
     21 O4          -0.3730     0.4070    -0.7060 os         1 R7I      -0.378000
     22 C3          -0.5830     0.6680    -3.0550 c5         1 R7I       0.096300
     23 O3           0.0010    -0.5580    -3.5120 oh         1 R7I      -0.714000
     24 C2          -2.0050     0.4200    -2.4750 c5         1 R7I       0.065300
     25 O2          -2.7910    -0.4370    -3.3290 oh         1 R7I      -0.711000
     26 C1          -1.6130    -0.2220    -1.0990 c5         1 R7I       0.327300
     27 N9          -2.5780    -0.1390    -0.0050 na         1 R7I      -0.159500
     28 C9          -3.0400    -1.1800     0.7600 cc         1 R7I       0.091400
     29 N3          -2.6670    -2.5100     0.7030 nc         1 R7I      -0.591100
     30 C10         -3.2960    -3.2980     1.5790 cd         1 R7I       0.463800
     31 N1          -4.2470    -2.8560     2.4690 ns         1 R7I      -0.432400
     32 C8          -3.2550     0.9910     0.4120 cc         1 R7I       0.451400
     33 N7          -4.1260     0.7090     1.3800 nd         1 R7I      -0.598000
     34 C7          -3.9830    -0.6550     1.6100 cd         1 R7I       0.180500
     35 C6          -4.6740    -1.5600     2.5760 c          1 R7I       0.517500
     36 O1          -5.5320    -1.2270     3.3840 o          1 R7I      -0.559000
     37 H2           2.5080    -2.0840     1.8170 h1         1 R7I       0.018200
     38 H3           1.0230    -1.3450     1.1990 h1         1 R7I       0.018200
     39 H4           2.4160     0.0930    -0.3550 h1         1 R7I       0.086700
     40 H5           3.0530    -2.9360    -0.5640 h1         1 R7I       0.034700
     41 H6           1.3220    -1.4550    -2.2810 ho         1 R7I       0.482000
     42 H7           4.1540    -2.2630    -2.6710 h1         1 R7I       0.015700
     43 H8           3.9550     0.3270    -2.6490 ho         1 R7I       0.505000
     44 H9           5.6810    -1.6770    -0.9070 h2         1 R7I       0.023700
     45 H10          5.9080     0.6500    -0.7030 ho         1 R7I       0.517000
     46 H12         -1.2370     2.8550    -1.1740 h1         1 R7I       0.012200
     47 H13         -0.1400     3.2790    -2.4860 h1         1 R7I       0.012200
     48 H14          1.2120     1.1440    -1.8630 h1         1 R7I       0.085700
     49 H15         -0.6040     1.4030    -3.8730 h1         1 R7I       0.038700
     50 H16         -0.7590    -1.0750    -3.8740 ho         1 R7I       0.497000
     51 H17         -2.5290     1.3740    -2.3150 h1         1 R7I       0.072700
     52 H18         -3.2320     0.1320    -4.0040 ho         1 R7I       0.494000
     53 H19         -1.4210    -1.2910    -1.2520 h2         1 R7I       0.090700
     54 H20         -3.1030    -4.3610     1.6510 h5         1 R7I       0.017800
     55 H21         -4.6790    -3.5170     3.1000 hn         1 R7I       0.297500
     56 H22         -3.0810     1.9670    -0.0250 h5         1 R7I       0.114100
@<TRIPOS>BOND
     1     1     2 1   
     2     2     3 1   
     3     2     4 1   
     4     2    14 1   
     5     4     5 1   
     6     5     6 1   
     7     5    37 1   
     8     5    38 1   
     9     6     7 1   
    10     6    13 1   
    11     6    39 1   
    12     7     8 1   
    13     7     9 1   
    14     7    40 1   
    15     8    41 1   
    16     9    10 1   
    17     9    11 1   
    18     9    42 1   
    19    10    43 1   
    20    11    12 1   
    21    11    13 1   
    22    11    44 1   
    23    12    45 1   
    24    14    15 1   
    25    15    16 1   
    26    15    17 1   
    27    15    18 1   
    28    18    19 1   
    29    19    20 1   
    30    19    46 1   
    31    19    47 1   
    32    20    21 1   
    33    20    22 1   
    34    20    48 1   
    35    21    26 1   
    36    22    23 1   
    37    22    24 1   
    38    22    49 1   
    39    23    50 1   
    40    24    25 1   
    41    24    26 1   
    42    24    51 1   
    43    25    52 1   
    44    26    27 1   
    45    26    53 1   
    46    27    28 1   
    47    27    32 1   
    48    28    29 1   
    49    28    34 2   
    50    29    30 2   
    51    30    31 1   
    52    30    54 1   
    53    31    35 1   
    54    31    55 1   
    55    32    33 2   
    56    32    56 1   
    57    33    34 1   
    58    34    35 1   
    59    35    36 2   
@<TRIPOS>SUBSTRUCTURE
     1 R7I         1 TEMP              0 ****  ****    0 ROOT
