@<TRIPOS>MOLECULE
R7I
   56    59     1     0     0
SMALL
bcc


@<TRIPOS>ATOM
      1 O1B         -0.0450    -1.2300     0.6270 o          1 R7I      -0.852000
      2 PB           0.7620     0.0140     0.8230 p5         1 R7I       1.465800
      3 O2B          0.9480     0.6160     2.1800 o          1 R7I      -0.852000
      4 O5D          2.2490    -0.2120     0.1310 os         1 R7I      -0.543200
      5 C5D          3.1050    -1.1440     0.7500 c3         1 R7I       0.209400
      6 C4D          4.2910    -1.4150    -0.1440 c5         1 R7I       0.149100
      7 C3D          5.2200    -2.4890     0.4170 c5         1 R7I       0.108100
      8 O3D          4.7250    -3.7640     0.1360 oh         1 R7I      -0.551800
      9 C2D          6.5460    -2.1240    -0.2410 c5         1 R7I       0.077100
     10 O2D          6.5320    -2.6050    -1.5580 oh         1 R7I      -0.569800
     11 C1D          6.4810    -0.5970    -0.1810 c5         1 R7I       0.305900
     12 O1D          7.1890    -0.0460    -1.2350 oh         1 R7I      -0.617800
     13 O4D          5.1070    -0.2600    -0.2610 os         1 R7I      -0.380600
     14 O3A          0.2390     1.1210    -0.2540 os         1 R7I      -0.702800
     15 PA           0.2930     2.7540    -0.1340 p5         1 R7I       1.476800
     16 O2A          1.7150     3.2130    -0.1130 o          1 R7I      -0.849000
     17 O1A         -0.6930     3.2390     0.8850 o          1 R7I      -0.849000
     18 O5          -0.2650     3.1060    -1.6450 os         1 R7I      -0.553200
     19 C5          -1.6250     3.3640    -1.9010 c3         1 R7I       0.203400
     20 C4          -2.2920     2.2140    -2.6410 c5         1 R7I       0.116100
     21 O4          -2.1420     0.9850    -1.9320 os         1 R7I      -0.331600
     22 C3          -3.7930     2.4290    -2.7830 c5         1 R7I       0.073100
     23 O3          -4.2460     1.7510    -3.9280 oh         1 R7I      -0.591800
     24 C2          -4.3060     1.7510    -1.5080 c5         1 R7I       0.042100
     25 O2          -5.6300     1.3110    -1.5630 oh         1 R7I      -0.588800
     26 C1          -3.3630     0.5520    -1.4150 c5         1 R7I       0.274800
     27 N9          -3.1880     0.0470    -0.0760 na         1 R7I      -0.180900
     28 C9          -3.4040    -1.2330     0.3270 cc         1 R7I       0.076800
     29 N3          -3.7980    -2.2660    -0.4450 nc         1 R7I      -0.591100
     30 C10         -3.9040    -3.3710     0.2180 cd         1 R7I       0.463800
     31 N1          -3.6600    -3.4970     1.5420 ns         1 R7I      -0.499400
     32 C8          -2.7690     0.7290     1.0340 cc         1 R7I       0.451400
     33 N7          -2.7430    -0.0100     2.1030 nd         1 R7I      -0.598000
     34 C7          -3.1350    -1.2470     1.6800 cd         1 R7I       0.245800
     35 C6          -3.2560    -2.4710     2.4040 c          1 R7I       0.660000
     36 O1          -3.0550    -2.6830     3.5890 o          1 R7I      -0.634500
     37 H2           3.4590    -0.7760     1.7220 h1         1 R7I       0.018200
     38 H3           2.5950    -2.0990     0.9300 h1         1 R7I       0.018200
     39 H4           3.9280    -1.7270    -1.1340 h1         1 R7I       0.086700
     40 H5           5.3300    -2.3310     1.5010 h1         1 R7I       0.034700
     41 H6           5.1800    -4.4000     0.6950 ho         1 R7I       0.383000
     42 H7           7.4130    -2.4990     0.3180 h1         1 R7I       0.015700
     43 H8           7.2400    -2.1680    -2.0440 ho         1 R7I       0.406000
     44 H9           6.8720    -0.2370     0.7780 h2         1 R7I       0.023700
     45 H10          7.4780     0.8420    -1.0050 ho         1 R7I       0.418000
     46 H12         -2.1620     3.6020    -0.9780 h1         1 R7I       0.012200
     47 H13         -1.6900     4.2480    -2.5430 h1         1 R7I       0.012200
     48 H14         -1.8230     2.0980    -3.6230 h1         1 R7I       0.085700
     49 H15         -4.0560     3.4950    -2.8130 h1         1 R7I       0.038700
     50 H16         -5.1910     1.5920    -3.8230 ho         1 R7I       0.398000
     51 H17         -4.1430     2.4250    -0.6590 h1         1 R7I       0.072700
     52 H18         -6.2120     2.0430    -1.3340 ho         1 R7I       0.395000
     53 H19         -3.7690    -0.2830    -1.9970 h2         1 R7I       0.090700
     54 H20         -4.2070    -4.2780    -0.2870 h5         1 R7I       0.017800
     55 H21         -3.7740    -4.4170     1.9500 hn         1 R7I       0.297500
     56 H22         -2.4610     1.7640     0.9910 h5         1 R7I       0.114100
@<TRIPOS>BOND
     1     1     2 1   
     2     2     3 1   
     3     2     4 1   
     4     2    14 1   
     5     4     5 1   
     6     5     6 1   
     7     5    37 1   
     8     5    38 1   
     9     6     7 1   
    10     6    13 1   
    11     6    39 1   
    12     7     8 1   
    13     7     9 1   
    14     7    40 1   
    15     8    41 1   
    16     9    10 1   
    17     9    11 1   
    18     9    42 1   
    19    10    43 1   
    20    11    12 1   
    21    11    13 1   
    22    11    44 1   
    23    12    45 1   
    24    14    15 1   
    25    15    16 1   
    26    15    17 1   
    27    15    18 1   
    28    18    19 1   
    29    19    20 1   
    30    19    46 1   
    31    19    47 1   
    32    20    21 1   
    33    20    22 1   
    34    20    48 1   
    35    21    26 1   
    36    22    23 1   
    37    22    24 1   
    38    22    49 1   
    39    23    50 1   
    40    24    25 1   
    41    24    26 1   
    42    24    51 1   
    43    25    52 1   
    44    26    27 1   
    45    26    53 1   
    46    27    28 1   
    47    27    32 1   
    48    28    29 1   
    49    28    34 2   
    50    29    30 2   
    51    30    31 1   
    52    30    54 1   
    53    31    35 1   
    54    31    55 1   
    55    32    33 2   
    56    32    56 1   
    57    33    34 1   
    58    34    35 1   
    59    35    36 2   
@<TRIPOS>SUBSTRUCTURE
     1 R7I         1 TEMP              0 ****  ****    0 ROOT
