@<TRIPOS>MOLECULE
R7J
   30    32     1     0     0
SMALL
No Charge or Current Charge


@<TRIPOS>ATOM
      1 C10          3.6690     9.0840   -13.0030 ca         1 R7J      -0.089000
      2 C13          1.7330     7.1800   -12.3750 ca         1 R7J      -0.104800
      3 C15          1.6450     9.4580   -16.1620 ca         1 R7J      -0.116000
      4 C17          1.9190    11.6380   -17.2050 ca         1 R7J      -0.168000
      5 C20          2.7510    11.2480   -14.9500 ca         1 R7J      -0.150000
      6 C02         -1.5770     6.5080   -11.8340 c          1 R7J       0.725000
      7 C04         -0.4150     5.6150   -12.3010 c3         1 R7J      -0.167200
      8 C05          0.9190     6.1160   -11.8100 cc         1 R7J      -0.038400
      9 C06          1.6660     5.6670   -10.7270 cd         1 R7J      -0.122900
     10 C08          2.8720     7.2940   -11.6190 ca         1 R7J       0.065100
     11 C09          3.8680     8.2320   -11.8960 ca         1 R7J      -0.130000
     12 C11          2.4920     8.9940   -13.8120 cp         1 R7J      -0.106000
     13 C12          1.5100     8.0150   -13.4780 ca         1 R7J      -0.007000
     14 C14          2.2950     9.9070   -14.9830 cp         1 R7J       0.028000
     15 C16          1.4580    10.3130   -17.2620 ca         1 R7J      -0.088000
     16 C18          2.5630    12.1000   -16.0490 ca         1 R7J       0.161000
     17 F19          3.0040    13.3760   -15.9920 f          1 R7J      -0.194000
     18 O01         -2.0650     6.2880   -10.7350 o          1 R7J      -0.723500
     19 O03         -1.8810     7.4670   -12.5290 o          1 R7J      -0.723500
     20 O07          2.8370     6.3780   -10.6170 os         1 R7J      -0.193200
     21 H101         4.4380     9.8130   -13.2440 ha         1 R7J       0.099000
     22 H151         1.2940     8.4320   -16.2310 ha         1 R7J       0.126000
     23 H171         1.7780    12.3050   -18.0520 ha         1 R7J       0.119000
     24 H201         3.2420    11.6370   -14.0630 ha         1 R7J       0.131000
     25 H041        -0.5340     4.6080   -11.8810 hc         1 R7J       0.031700
     26 H042        -0.3600     5.6160   -13.3960 hc         1 R7J       0.031700
     27 H061         1.4720     4.8830   -10.0000 h4         1 R7J       0.229000
     28 H091         4.7630     8.2990   -11.2820 ha         1 R7J       0.114000
     29 H121         0.5930     7.9220   -14.0540 ha         1 R7J       0.152000
     30 H161         0.9600     9.9470   -18.1580 ha         1 R7J       0.109000
@<TRIPOS>BOND
     1     1    11 ar  
     2     1    12 ar  
     3     1    21 1   
     4     2     8 1   
     5     2    10 ar  
     6     2    13 ar  
     7     3    14 ar  
     8     3    15 ar  
     9     3    22 1   
    10     4    15 ar  
    11     4    16 ar  
    12     4    23 1   
    13     5    14 ar  
    14     5    16 ar  
    15     5    24 1   
    16     6     7 1   
    17     6    18 1   
    18     6    19 1   
    19     7     8 1   
    20     7    25 1   
    21     7    26 1   
    22     8     9 2   
    23     9    20 1   
    24     9    27 1   
    25    10    11 ar  
    26    10    20 1   
    27    11    28 1   
    28    12    13 ar  
    29    12    14 1   
    30    13    29 1   
    31    15    30 1   
    32    16    17 1   
@<TRIPOS>SUBSTRUCTURE
     1 R7J         1 TEMP              0 ****  ****    0 ROOT
