@<TRIPOS>MOLECULE
R7J
   30    32     1     0     0
SMALL
bcc


@<TRIPOS>ATOM
      1 C10          3.6320     9.0370   -13.0390 ca         1 R7J      -0.107000
      2 C13          1.6940     7.1640   -12.4270 ca         1 R7J      -0.104800
      3 C15          1.7560     9.4170   -16.1680 ca         1 R7J      -0.134000
      4 C17          1.9210    11.6220   -17.1320 ca         1 R7J      -0.186000
      5 C20          2.6110    11.2290   -14.8430 ca         1 R7J      -0.168000
      6 C02         -1.4880     6.7120   -11.9030 c          1 R7J       0.935600
      7 C04         -0.4170     5.6360   -12.2360 c3         1 R7J      -0.167200
      8 C05          0.9360     6.0970   -11.8230 cc         1 R7J      -0.038400
      9 C06          1.7060     5.6580   -10.8060 cd         1 R7J      -0.072900
     10 C08          2.8730     7.2640   -11.6870 ca         1 R7J       0.065100
     11 C09          3.8610     8.1920   -11.9660 ca         1 R7J      -0.148000
     12 C11          2.4590     8.9630   -13.8130 cp         1 R7J      -0.106000
     13 C12          1.4820     8.0230   -13.5020 ca         1 R7J      -0.025000
     14 C14          2.2720     9.8800   -14.9570 cp         1 R7J       0.028000
     15 C16          1.5850    10.2800   -17.2400 ca         1 R7J      -0.106000
     16 C18          2.4280    12.0650   -15.9260 ca         1 R7J       0.125900
     17 F19          2.7470    13.3640   -15.7930 f          1 R7J      -0.158900
     18 O01         -1.6750     6.9280   -10.6920 o          1 R7J      -0.828800
     19 O03         -2.0480     7.2660   -12.8680 o          1 R7J      -0.828800
     20 O07          2.8810     6.3460   -10.7000 os         1 R7J      -0.193200
     21 H101         4.3930     9.7620   -13.2990 ha         1 R7J       0.117000
     22 H151         1.5070     8.3700   -16.2810 ha         1 R7J       0.144000
     23 H171         1.7930    12.3040   -17.9620 ha         1 R7J       0.137000
     24 H201         2.9960    11.6300   -13.9130 ha         1 R7J       0.149000
     25 H041        -0.6590     4.7110   -11.7080 hc         1 R7J       0.031700
     26 H042        -0.4150     5.4120   -13.3050 hc         1 R7J       0.031700
     27 H061         1.5500     4.8760   -10.0790 h4         1 R7J       0.179000
     28 H091         4.7710     8.2540   -11.3850 ha         1 R7J       0.132000
     29 H121         0.5610     7.9740   -14.0690 ha         1 R7J       0.170000
     30 H161         1.1940     9.9030   -18.1760 ha         1 R7J       0.127000
@<TRIPOS>BOND
     1     1    11 ar  
     2     1    12 ar  
     3     1    21 1   
     4     2     8 1   
     5     2    10 ar  
     6     2    13 ar  
     7     3    14 ar  
     8     3    15 ar  
     9     3    22 1   
    10     4    15 ar  
    11     4    16 ar  
    12     4    23 1   
    13     5    14 ar  
    14     5    16 ar  
    15     5    24 1   
    16     6     7 1   
    17     6    18 1   
    18     6    19 1   
    19     7     8 1   
    20     7    25 1   
    21     7    26 1   
    22     8     9 2   
    23     9    20 1   
    24     9    27 1   
    25    10    11 ar  
    26    10    20 1   
    27    11    28 1   
    28    12    13 ar  
    29    12    14 1   
    30    13    29 1   
    31    15    30 1   
    32    16    17 1   
@<TRIPOS>SUBSTRUCTURE
     1 R7J         1 TEMP              0 ****  ****    0 ROOT
