@<TRIPOS>MOLECULE
R7M
   30    31     1     0     0
SMALL
abcg2


@<TRIPOS>ATOM
      1 C10        161.4910   144.8180   170.6860 c6         1 R7M       0.391000
      2 C13        160.3810   143.7330   172.6420 c          1 R7M       0.604700
      3 C15        159.1420   144.8060   170.7830 ca         1 R7M       0.223100
      4 C17        157.9790   145.0780   170.0930 ca         1 R7M      -0.189000
      5 C20        156.7580   143.6470   171.6210 ca         1 R7M      -0.244000
      6 C21        154.4410   144.2850   170.1630 c3         1 R7M       0.147900
      7 C11        161.5670   144.5560   172.1870 c6         1 R7M      -0.254400
      8 C12        162.5550   145.8510   170.2390 c3         1 R7M       0.111000
      9 C14        159.1440   143.9620   171.9000 ca         1 R7M      -0.292600
     10 C16        162.7440   146.0540   168.7140 c3         1 R7M       0.285000
     11 C18        157.9340   143.3890   172.2910 ca         1 R7M       0.024000
     12 C19        156.7780   144.5080   170.5160 ca         1 R7M       0.209100
     13 F01        162.2690   147.0530   170.7750 f          1 R7M      -0.084000
     14 F02        163.7580   145.4640   170.7180 f          1 R7M      -0.084000
     15 F03        161.5910   146.2410   168.0860 f          1 R7M      -0.089333
     16 F04        163.5010   147.1310   168.5070 f          1 R7M      -0.089333
     17 F05        163.3580   145.0140   168.1630 f          1 R7M      -0.089333
     18 O06        160.2710   145.4060   170.3380 os         1 R7M      -0.323100
     19 O07        161.6070   143.6560   169.9460 oh         1 R7M      -0.654000
     20 O08        160.4610   142.9860   173.5940 o          1 R7M      -0.515100
     21 O09        155.7000   144.8270   169.7990 os         1 R7M      -0.332100
     22 H1         157.9960   145.7300   169.2280 ha         1 R7M       0.153000
     23 H2         155.8420   143.1860   171.9630 ha         1 R7M       0.127000
     24 H3         153.7210   144.6900   169.4570 h1         1 R7M       0.047367
     25 H4         154.4340   143.1960   170.0910 h1         1 R7M       0.047367
     26 H5         154.1510   144.5790   171.1740 h1         1 R7M       0.047367
     27 H6         162.4930   144.0500   172.4600 hc         1 R7M       0.101200
     28 H7         161.5370   145.4970   172.7470 hc         1 R7M       0.101200
     29 H8         157.9190   142.7300   173.1500 ha         1 R7M       0.133000
     30 H9         162.2090   143.0290   170.3660 ho         1 R7M       0.486000
@<TRIPOS>BOND
     1     1     7 1   
     2     1     8 1   
     3     1    18 1   
     4     1    19 1   
     5     2     7 1   
     6     2     9 1   
     7     2    20 2   
     8     3     4 ar  
     9     3     9 ar  
    10     3    18 1   
    11     4    12 ar  
    12     4    22 1   
    13     5    11 ar  
    14     5    12 ar  
    15     5    23 1   
    16     6    21 1   
    17     6    24 1   
    18     6    25 1   
    19     6    26 1   
    20     7    27 1   
    21     7    28 1   
    22     8    10 1   
    23     8    13 1   
    24     8    14 1   
    25     9    11 ar  
    26    10    15 1   
    27    10    16 1   
    28    10    17 1   
    29    11    29 1   
    30    12    21 1   
    31    19    30 1   
@<TRIPOS>SUBSTRUCTURE
     1 R7M         1 TEMP              0 ****  ****    0 ROOT
