@<TRIPOS>MOLECULE
R7M
   30    31     1     0     0
SMALL
No Charge or Current Charge


@<TRIPOS>ATOM
      1 C10        161.5750   144.7980   170.7060 c6         1 R7M       0.391000
      2 C13        160.3900   143.7110   172.6270 c          1 R7M       0.604700
      3 C15        159.1290   144.7600   170.7460 ca         1 R7M       0.223100
      4 C17        157.9390   145.0340   170.0610 ca         1 R7M      -0.189000
      5 C20        156.7080   143.6610   171.6410 ca         1 R7M      -0.244000
      6 C21        154.2930   144.2780   170.1450 c3         1 R7M       0.147900
      7 C11        161.5570   144.5940   172.2290 c6         1 R7M      -0.254400
      8 C12        162.6930   145.8210   170.2400 c3         1 R7M       0.111000
      9 C14        159.1120   143.9540   171.8960 ca         1 R7M      -0.292600
     10 C16        162.7740   146.1100   168.7040 c3         1 R7M       0.285000
     11 C18        157.8980   143.3940   172.3390 ca         1 R7M       0.024000
     12 C19        156.7260   144.4880   170.4990 ca         1 R7M       0.209100
     13 F01        162.5150   147.0100   170.8720 f          1 R7M      -0.084000
     14 F02        163.9100   145.3750   170.6430 f          1 R7M      -0.084000
     15 F03        161.6210   146.6350   168.2270 f          1 R7M      -0.089333
     16 F04        163.7630   146.9940   168.4300 f          1 R7M      -0.089333
     17 F05        163.0280   144.9880   167.9920 f          1 R7M      -0.089333
     18 O06        160.3010   145.3110   170.2770 os         1 R7M      -0.323100
     19 O07        161.7570   143.5270   170.0860 oh         1 R7M      -0.654000
     20 O08        160.5080   142.8380   173.4760 o          1 R7M      -0.515100
     21 O09        155.5880   144.7880   169.7800 os         1 R7M      -0.332100
     22 H1         157.9590   145.6680   169.1800 ha         1 R7M       0.153000
     23 H2         155.7840   143.2200   172.0050 ha         1 R7M       0.127000
     24 H3         153.5310   144.6380   169.4430 h1         1 R7M       0.047367
     25 H4         154.2850   143.1810   170.1220 h1         1 R7M       0.047367
     26 H5         154.0120   144.6110   171.1520 h1         1 R7M       0.047367
     27 H6         162.4950   144.2060   172.6440 hc         1 R7M       0.101200
     28 H7         161.3510   145.5750   172.6740 hc         1 R7M       0.101200
     29 H8         157.8710   142.7610   173.2260 ha         1 R7M       0.133000
     30 H9         162.6560   143.2220   170.3320 ho         1 R7M       0.486000
@<TRIPOS>BOND
     1     1     7 1   
     2     1     8 1   
     3     1    18 1   
     4     1    19 1   
     5     2     7 1   
     6     2     9 1   
     7     2    20 2   
     8     3     4 ar  
     9     3     9 ar  
    10     3    18 1   
    11     4    12 ar  
    12     4    22 1   
    13     5    11 ar  
    14     5    12 ar  
    15     5    23 1   
    16     6    21 1   
    17     6    24 1   
    18     6    25 1   
    19     6    26 1   
    20     7    27 1   
    21     7    28 1   
    22     8    10 1   
    23     8    13 1   
    24     8    14 1   
    25     9    11 ar  
    26    10    15 1   
    27    10    16 1   
    28    10    17 1   
    29    11    29 1   
    30    12    21 1   
    31    19    30 1   
@<TRIPOS>SUBSTRUCTURE
     1 R7M         1 TEMP              0 ****  ****    0 ROOT
