@<TRIPOS>MOLECULE
R7O
   54    57     1     0     0
SMALL
No Charge or Current Charge


@<TRIPOS>ATOM
      1 C1         -20.2260     5.1390    30.4690 ca         1 R7O      -0.135000
      2 C2         -20.9330     6.2930    30.1020 ca         1 R7O       0.140100
      3 C3         -21.6890     6.3150    28.9130 ca         1 R7O       0.014100
      4 C4         -21.7300     5.1730    28.0960 ca         1 R7O      -0.114000
      5 C5         -21.0110     4.0120    28.4460 ca         1 R7O      -0.060800
      6 C6         -21.1040     2.8420    27.5670 cc         1 R7O       0.168900
      7 O1         -22.3750     2.4870    27.1520 os         1 R7O      -0.188200
      8 O11        -22.3800     7.4440    28.5550 oh         1 R7O      -0.569100
      9 O12        -20.9000     7.4030    30.8910 oh         1 R7O      -0.530100
     10 O5         -24.8930     4.8170    25.7650 os         1 R7O      -0.463000
     11 O6         -23.3640     7.2670    26.0220 oh         1 R7O      -0.711000
     12 C          -20.2660     3.9980    29.6450 ca         1 R7O      -0.055000
     13 C10        -22.4660     1.7330    25.9920 ca         1 R7O       0.253100
     14 C11        -23.7170     1.7120    25.3390 ca         1 R7O      -0.104900
     15 C12        -23.9030     0.8950    24.2030 ca         1 R7O       0.262100
     16 C13        -22.8420     0.1240    23.7220 ca         1 R7O      -0.247000
     17 C14        -21.6050     0.1490    24.3640 ca         1 R7O       0.283100
     18 C15        -25.2560     3.5860    25.1010 c6         1 R7O       0.379300
     19 C16        -26.8070     3.4720    25.0030 c6         1 R7O       0.143300
     20 C17        -27.3590     4.7090    24.2450 c6         1 R7O       0.140300
     21 C18        -26.8980     6.0200    24.9510 c6         1 R7O       0.107300
     22 C19        -25.3370     6.0190    25.0740 c6         1 R7O       0.141300
     23 C20        -24.7960     7.2640    25.8570 c3         1 R7O       0.173600
     24 C7         -19.9980     2.0790    27.2160 cd         1 R7O      -0.067100
     25 C8         -20.1100     1.0240    26.1920 c          1 R7O       0.574900
     26 C9         -21.4100     0.9480    25.5010 ca         1 R7O      -0.367600
     27 O10        -18.7250     2.2730    27.6790 oh         1 R7O      -0.525100
     28 O7         -27.3860     7.1620    24.2120 oh         1 R7O      -0.723000
     29 O8         -28.7950     4.6600    24.1700 oh         1 R7O      -0.665000
     30 O9         -27.2270     2.2490    24.3530 oh         1 R7O      -0.740000
     31 H1         -19.6500     5.1250    31.3910 ha         1 R7O       0.138000
     32 H2         -22.3210     5.1770    27.1840 ha         1 R7O       0.149000
     33 H3         -22.7610     7.3170    27.6420 ho         1 R7O       0.475000
     34 H4         -21.4650     8.0670    30.4340 ho         1 R7O       0.483000
     35 H5         -19.8350    -0.4640    24.5010 ho         1 R7O       0.521000
     36 H6         -25.7870     1.3370    24.0550 ho         1 R7O       0.516000
     37 H7         -22.9740     7.3110    25.1170 ho         1 R7O       0.514000
     38 H8         -19.7270     3.1030    29.9480 ha         1 R7O       0.147000
     39 H9         -22.9850    -0.5070    22.8500 ha         1 R7O       0.156000
     40 H10        -24.8240     3.5750    24.0890 h2         1 R7O       0.054700
     41 H11        -27.2030     3.4990    26.0300 h1         1 R7O       0.073700
     42 H12        -26.9350     4.7050    23.2290 h1         1 R7O       0.063700
     43 H13        -27.3190     6.0250    25.9680 h1         1 R7O       0.055700
     44 H14        -24.8970     6.0300    24.0660 h1         1 R7O       0.075700
     45 H15        -25.1070     8.1720    25.3240 h1         1 R7O       0.031700
     46 H16        -25.2820     7.2850    26.8410 h1         1 R7O       0.031700
     47 H17        -18.1550     1.5990    27.2340 ho         1 R7O       0.493000
     48 H18        -27.5140     7.9040    24.8520 ho         1 R7O       0.514000
     49 H19        -29.0660     5.5730    23.9150 ho         1 R7O       0.466000
     50 H20        -28.1820     2.3990    24.1320 ho         1 R7O       0.539000
     51 O2         -20.5940    -0.6130    23.8780 oh         1 R7O      -0.534100
     52 O3         -25.1060     0.8010    23.5660 oh         1 R7O      -0.534100
     53 O4         -24.7500     2.4690    25.8580 os         1 R7O      -0.320100
     54 O          -19.1660     0.3020    25.8800 o          1 R7O      -0.626100
@<TRIPOS>BOND
     1     1     2 ar  
     2     1    12 ar  
     3     1    31 1   
     4     2     3 ar  
     5     2     9 1   
     6     3     4 ar  
     7     3     8 1   
     8     4     5 ar  
     9     4    32 1   
    10     5     6 1   
    11     5    12 ar  
    12     6     7 1   
    13     6    24 2   
    14     7    13 1   
    15     8    33 1   
    16     9    34 1   
    17    10    18 1   
    18    10    22 1   
    19    11    23 1   
    20    11    37 1   
    21    12    38 1   
    22    13    14 ar  
    23    13    26 ar  
    24    14    15 ar  
    25    14    53 1   
    26    15    16 ar  
    27    15    52 1   
    28    16    17 ar  
    29    16    39 1   
    30    17    26 ar  
    31    17    51 1   
    32    18    19 1   
    33    18    40 1   
    34    18    53 1   
    35    19    20 1   
    36    19    30 1   
    37    19    41 1   
    38    20    21 1   
    39    20    29 1   
    40    20    42 1   
    41    21    22 1   
    42    21    28 1   
    43    21    43 1   
    44    22    23 1   
    45    22    44 1   
    46    23    45 1   
    47    23    46 1   
    48    24    25 1   
    49    24    27 1   
    50    25    26 1   
    51    25    54 2   
    52    27    47 1   
    53    28    48 1   
    54    29    49 1   
    55    30    50 1   
    56    35    51 1   
    57    36    52 1   
@<TRIPOS>SUBSTRUCTURE
     1 R7O         1 TEMP              0 ****  ****    0 ROOT
