@<TRIPOS>MOLECULE
R7O
   54    57     1     0     0
SMALL
abcg2


@<TRIPOS>ATOM
      1 C1         -20.0690     5.6740    29.8040 ca         1 R7O      -0.135000
      2 C2         -21.2680     6.3430    30.0020 ca         1 R7O       0.140100
      3 C3         -22.4040     5.9410    29.2840 ca         1 R7O       0.014100
      4 C4         -22.3310     4.8930    28.3900 ca         1 R7O      -0.114000
      5 C5         -21.1200     4.2040    28.1910 ca         1 R7O      -0.060800
      6 C6         -21.0890     3.0840    27.2580 cc         1 R7O       0.168900
      7 O1         -22.3190     2.8320    26.7210 os         1 R7O      -0.188200
      8 O11        -23.5420     6.6550    29.5360 oh         1 R7O      -0.569100
      9 O12        -21.3320     7.3720    30.8850 oh         1 R7O      -0.530100
     10 O5         -24.7100     4.7320    25.7260 os         1 R7O      -0.463000
     11 O6         -22.8410     6.9140    25.5670 oh         1 R7O      -0.711000
     12 C          -19.9890     4.6150    28.9110 ca         1 R7O      -0.055000
     13 C10        -22.5440     1.8290    25.8510 ca         1 R7O       0.253100
     14 C11        -23.8430     1.6680    25.3790 ca         1 R7O      -0.104900
     15 C12        -24.1090     0.6210    24.4900 ca         1 R7O       0.262100
     16 C13        -23.0900    -0.2500    24.0790 ca         1 R7O      -0.247000
     17 C14        -21.8040    -0.0780    24.5480 ca         1 R7O       0.283100
     18 C15        -25.1960     3.5960    25.0560 c6         1 R7O       0.379300
     19 C16        -26.7100     3.6600    24.9330 c6         1 R7O       0.143300
     20 C17        -27.1230     4.9490    24.2450 c6         1 R7O       0.140300
     21 C18        -26.4730     6.1620    24.9000 c6         1 R7O       0.107300
     22 C19        -24.9560     5.9470    25.0050 c6         1 R7O       0.141300
     23 C20        -24.2500     7.0630    25.7360 c3         1 R7O       0.173600
     24 C7         -20.0320     2.3000    26.8900 cd         1 R7O      -0.067100
     25 C8         -20.1940     1.2020    25.9660 c          1 R7O       0.574900
     26 C9         -21.5080     0.9760    25.4500 ca         1 R7O      -0.367600
     27 O10        -18.7740     2.4820    27.3630 oh         1 R7O      -0.525100
     28 O7         -26.7970     7.2820    24.0780 oh         1 R7O      -0.723000
     29 O8         -28.5420     5.0250    24.2880 oh         1 R7O      -0.665000
     30 O9         -27.1100     2.5130    24.1840 oh         1 R7O      -0.740000
     31 H1         -19.1970     5.9890    30.3630 ha         1 R7O       0.138000
     32 H2         -23.2170     4.6150    27.8360 ha         1 R7O       0.149000
     33 H3         -24.2950     6.2720    29.0660 ho         1 R7O       0.475000
     34 H4         -22.2370     7.7170    30.9050 ho         1 R7O       0.483000
     35 H5         -19.9920    -0.6150    24.5930 ho         1 R7O       0.521000
     36 H6         -25.9730     1.1240    24.2560 ho         1 R7O       0.516000
     37 H7         -22.3970     7.2880    26.3370 ho         1 R7O       0.514000
     38 H8         -19.0470     4.1090    28.7820 ha         1 R7O       0.147000
     39 H9         -23.3200    -1.0510    23.3900 ha         1 R7O       0.156000
     40 H10        -24.7310     3.5120    24.0650 h2         1 R7O       0.054700
     41 H11        -27.1360     3.6250    25.9410 h1         1 R7O       0.073700
     42 H12        -26.7800     4.9070    23.2020 h1         1 R7O       0.063700
     43 H13        -26.8860     6.2930    25.9050 h1         1 R7O       0.055700
     44 H14        -24.5390     5.8600    23.9930 h1         1 R7O       0.075700
     45 H15        -24.5800     8.0230    25.3260 h1         1 R7O       0.031700
     46 H16        -24.5240     7.0280    26.7930 h1         1 R7O       0.031700
     47 H17        -18.2370     1.7820    26.9430 ho         1 R7O       0.493000
     48 H18        -26.8520     8.0750    24.6240 ho         1 R7O       0.514000
     49 H19        -28.8030     5.8380    23.8360 ho         1 R7O       0.466000
     50 H20        -28.0670     2.4030    24.2550 ho         1 R7O       0.539000
     51 O2         -20.8250    -0.9130    24.1480 oh         1 R7O      -0.534100
     52 O3         -25.3430     0.4080    24.0060 oh         1 R7O      -0.534100
     53 O4         -24.8730     2.4620    25.8320 os         1 R7O      -0.320100
     54 O          -19.1920     0.5010    25.6640 o          1 R7O      -0.626100
@<TRIPOS>BOND
     1     1     2 ar  
     2     1    12 ar  
     3     1    31 1   
     4     2     3 ar  
     5     2     9 1   
     6     3     4 ar  
     7     3     8 1   
     8     4     5 ar  
     9     4    32 1   
    10     5     6 1   
    11     5    12 ar  
    12     6     7 1   
    13     6    24 2   
    14     7    13 1   
    15     8    33 1   
    16     9    34 1   
    17    10    18 1   
    18    10    22 1   
    19    11    23 1   
    20    11    37 1   
    21    12    38 1   
    22    13    14 ar  
    23    13    26 ar  
    24    14    15 ar  
    25    14    53 1   
    26    15    16 ar  
    27    15    52 1   
    28    16    17 ar  
    29    16    39 1   
    30    17    26 ar  
    31    17    51 1   
    32    18    19 1   
    33    18    40 1   
    34    18    53 1   
    35    19    20 1   
    36    19    30 1   
    37    19    41 1   
    38    20    21 1   
    39    20    29 1   
    40    20    42 1   
    41    21    22 1   
    42    21    28 1   
    43    21    43 1   
    44    22    23 1   
    45    22    44 1   
    46    23    45 1   
    47    23    46 1   
    48    24    25 1   
    49    24    27 1   
    50    25    26 1   
    51    25    54 2   
    52    27    47 1   
    53    28    48 1   
    54    29    49 1   
    55    30    50 1   
    56    35    51 1   
    57    36    52 1   
@<TRIPOS>SUBSTRUCTURE
     1 R7O         1 TEMP              0 ****  ****    0 ROOT
