@<TRIPOS>MOLECULE
R7Q
   26    26     1     0     0
SMALL
bcc


@<TRIPOS>ATOM
      1 C10          7.1650    -1.6340    19.4790 c3         1 R7Q      -0.155700
      2 C02          3.3740     1.6630    20.9710 ca         1 R7Q      -0.048300
      3 C03          3.8330     2.0860    19.7220 ca         1 R7Q      -0.145500
      4 C04          4.7880     1.3640    19.0310 ca         1 R7Q      -0.080000
      5 C05          5.3300     0.1940    19.5700 ca         1 R7Q      -0.177600
      6 C06          4.8750    -0.2290    20.8180 ca         1 R7Q      -0.080000
      7 C07          3.9110     0.4930    21.5040 ca         1 R7Q      -0.145500
      8 C08          6.3640    -0.5470    18.7910 c          1 R7Q       0.584700
      9 C11          8.1790    -0.9730    20.4240 c3         1 R7Q      -0.082600
     10 C12          7.8650    -2.5460    18.4820 c3         1 R7Q      -0.082600
     11 O09          6.5820    -0.2450    17.6350 o          1 R7Q      -0.524100
     12 H101         6.4880    -2.2430    20.0840 hc         1 R7Q       0.059700
     13 H011         1.3220     2.1290    21.3710 hc         1 R7Q       0.046033
     14 H012         2.3670     2.2610    22.7770 hc         1 R7Q       0.046033
     15 H013         2.4040     3.5030    21.5220 hc         1 R7Q       0.046033
     16 H031         3.4360     2.9950    19.2870 ha         1 R7Q       0.133000
     17 H041         5.1250     1.7160    18.0650 ha         1 R7Q       0.140500
     18 H061         5.2570    -1.1330    21.2730 ha         1 R7Q       0.140500
     19 H071         3.5750     0.1420    22.4720 ha         1 R7Q       0.133000
     20 H112         7.7010    -0.3450    21.1770 hc         1 R7Q       0.040700
     21 H111         8.7520    -1.7380    20.9470 hc         1 R7Q       0.040700
     22 H113         8.8820    -0.3520    19.8660 hc         1 R7Q       0.040700
     23 H121         8.4190    -3.3170    19.0180 hc         1 R7Q       0.040700
     24 H122         7.1560    -3.0470    17.8220 hc         1 R7Q       0.040700
     25 H1           8.5750    -1.9980    17.8620 hc         1 R7Q       0.040700
     26 C01          2.3170     2.4320    21.7030 c3         1 R7Q      -0.052800
@<TRIPOS>BOND
     1     1     8 1   
     2     1     9 1   
     3     1    10 1   
     4     1    12 1   
     5     2     3 ar  
     6     2     7 ar  
     7     2    26 1   
     8     3     4 ar  
     9     3    16 1   
    10     4     5 ar  
    11     4    17 1   
    12     5     6 ar  
    13     5     8 1   
    14     6     7 ar  
    15     6    18 1   
    16     7    19 1   
    17     8    11 2   
    18     9    20 1   
    19     9    21 1   
    20     9    22 1   
    21    10    23 1   
    22    10    24 1   
    23    10    25 1   
    24    13    26 1   
    25    14    26 1   
    26    15    26 1   
@<TRIPOS>SUBSTRUCTURE
     1 R7Q         1 TEMP              0 ****  ****    0 ROOT
