@<TRIPOS>MOLECULE
R7Q
   26    26     1     0     0
SMALL
No Charge or Current Charge


@<TRIPOS>ATOM
      1 C10          7.2720    -1.5370    19.5390 c3         1 R7Q      -0.155700
      2 C02          3.2400     1.6330    20.9130 ca         1 R7Q      -0.048300
      3 C03          3.5890     1.9330    19.5840 ca         1 R7Q      -0.127500
      4 C04          4.7280     1.3540    19.0000 ca         1 R7Q      -0.062000
      5 C05          5.5350     0.4550    19.7320 ca         1 R7Q      -0.177600
      6 C06          5.1840     0.1650    21.0710 ca         1 R7Q      -0.062000
      7 C07          4.0440     0.7480    21.6510 ca         1 R7Q      -0.127500
      8 C08          6.7600    -0.1490    19.0780 c          1 R7Q       0.584700
      9 C11          8.5510    -1.3970    20.3980 c3         1 R7Q      -0.082600
     10 C12          7.4780    -2.5000    18.3440 c3         1 R7Q      -0.082600
     11 O09          7.3560     0.4690    18.2020 o          1 R7Q      -0.524100
     12 H101         6.5080    -1.9850    20.1840 hc         1 R7Q       0.059700
     13 H011         1.1230     1.6300    21.3800 hc         1 R7Q       0.046033
     14 H012         2.1310     2.3880    22.6250 hc         1 R7Q       0.046033
     15 H013         1.7960     3.2480    21.1170 hc         1 R7Q       0.046033
     16 H031         2.9770     2.6170    19.0010 ha         1 R7Q       0.115000
     17 H041         4.9790     1.6010    17.9700 ha         1 R7Q       0.122500
     18 H061         5.7940    -0.4980    21.6790 ha         1 R7Q       0.122500
     19 H071         3.7880     0.5120    22.6820 ha         1 R7Q       0.115000
     20 H112         8.3710    -0.7430    21.2600 hc         1 R7Q       0.040700
     21 H111         8.8740    -2.3740    20.7760 hc         1 R7Q       0.040700
     22 H113         9.3720    -0.9680    19.8100 hc         1 R7Q       0.040700
     23 H121         7.7720    -3.4960    18.6960 hc         1 R7Q       0.040700
     24 H122         6.5510    -2.6030    17.7680 hc         1 R7Q       0.040700
     25 H1           8.2620    -2.1300    17.6710 hc         1 R7Q       0.040700
     26 C01          2.0060     2.2590    21.5430 c3         1 R7Q      -0.052800
@<TRIPOS>BOND
     1     1     8 1   
     2     1     9 1   
     3     1    10 1   
     4     1    12 1   
     5     2     3 ar  
     6     2     7 ar  
     7     2    26 1   
     8     3     4 ar  
     9     3    16 1   
    10     4     5 ar  
    11     4    17 1   
    12     5     6 ar  
    13     5     8 1   
    14     6     7 ar  
    15     6    18 1   
    16     7    19 1   
    17     8    11 2   
    18     9    20 1   
    19     9    21 1   
    20     9    22 1   
    21    10    23 1   
    22    10    24 1   
    23    10    25 1   
    24    13    26 1   
    25    14    26 1   
    26    15    26 1   
@<TRIPOS>SUBSTRUCTURE
     1 R7Q         1 TEMP              0 ****  ****    0 ROOT
