@<TRIPOS>MOLECULE
R7R
   26    26     1     0     0
SMALL
No Charge or Current Charge


@<TRIPOS>ATOM
      1 C1          20.6190    -2.8050   -27.9010 c6         1 R7R       0.127300
      2 C3          18.8730    -4.0080   -26.4960 c6         1 R7R       0.197300
      3 C4          18.4750    -4.6010   -25.1210 c3         1 R7R      -0.358400
      4 C5          18.1320    -2.2090   -27.9900 c6         1 R7R       0.391300
      5 C6          19.6000    -1.6500   -28.1110 c6         1 R7R       0.158300
      6 O1          21.9760    -2.3180   -27.9580 oh         1 R7R      -0.752000
      7 C2          20.3560    -3.4980   -26.5330 c6         1 R7R       0.112300
      8 O2          21.3190    -4.5580   -26.3410 oh         1 R7R      -0.731000
      9 S1          17.0810    -5.7390   -25.1390 s6         1 R7R       1.345600
     10 O3          17.5010    -6.7870   -26.0800 o          1 R7R      -0.697533
     11 O4          15.9430    -4.9290   -25.5950 o          1 R7R      -0.697533
     12 O5          16.9890    -6.1810   -23.7400 o          1 R7R      -0.697533
     13 O6          17.9720    -2.8940   -26.7320 os         1 R7R      -0.464000
     14 O7          17.7920    -3.1460   -29.0140 oh         1 R7R      -0.733000
     15 O8          19.8740    -0.9750   -29.3600 oh         1 R7R      -0.712000
     16 H1          20.4580    -3.5540   -28.6930 h1         1 R7R       0.075700
     17 H2          18.7400    -4.7730   -27.2760 h1         1 R7R       0.084700
     18 H3          19.3000    -5.1900   -24.7110 h1         1 R7R       0.074700
     19 H4          18.2260    -3.8010   -24.4170 h1         1 R7R       0.074700
     20 H5          17.4330    -1.3580   -28.0240 h2         1 R7R       0.066700
     21 H6          19.7360    -0.9350   -27.2860 h1         1 R7R       0.043700
     22 H7          22.4940    -3.0060   -27.4720 ho         1 R7R       0.515000
     23 H8          20.4740    -2.7460   -25.7380 h1         1 R7R       0.041700
     24 H9          21.1830    -4.9120   -25.4310 ho         1 R7R       0.506000
     25 H10         16.9040    -3.4780   -28.7540 ho         1 R7R       0.522000
     26 H11         20.8560    -1.0380   -29.4470 ho         1 R7R       0.508000
@<TRIPOS>BOND
     1     1     5 1   
     2     1     6 1   
     3     1     7 1   
     4     1    16 1   
     5     2     3 1   
     6     2     7 1   
     7     2    13 1   
     8     2    17 1   
     9     3     9 1   
    10     3    18 1   
    11     3    19 1   
    12     4     5 1   
    13     4    13 1   
    14     4    14 1   
    15     4    20 1   
    16     5    15 1   
    17     5    21 1   
    18     6    22 1   
    19     7     8 1   
    20     7    23 1   
    21     8    24 1   
    22     9    10 1   
    23     9    11 1   
    24     9    12 1   
    25    14    25 1   
    26    15    26 1   
@<TRIPOS>SUBSTRUCTURE
     1 R7R         1 TEMP              0 ****  ****    0 ROOT
