@<TRIPOS>MOLECULE
R7R
   26    26     1     0     0
SMALL
abcg2


@<TRIPOS>ATOM
      1 C1          20.6110    -2.8510   -27.8260 c6         1 R7R       0.127300
      2 C3          18.8600    -4.0150   -26.4680 c6         1 R7R       0.197300
      3 C4          18.4820    -4.5980   -25.1210 c3         1 R7R      -0.358400
      4 C5          18.1780    -2.2890   -27.9920 c6         1 R7R       0.391300
      5 C6          19.6010    -1.7460   -28.0890 c6         1 R7R       0.158300
      6 O1          21.9050    -2.2520   -27.8310 oh         1 R7R      -0.752000
      7 C2          20.3180    -3.5340   -26.4980 c6         1 R7R       0.112300
      8 O2          21.2300    -4.6270   -26.3810 oh         1 R7R      -0.731000
      9 S1          17.0200    -5.6600   -25.1100 s6         1 R7R       1.345600
     10 O3          17.2490    -6.6650   -26.1580 o          1 R7R      -0.697533
     11 O4          15.8500    -4.8160   -25.3800 o          1 R7R      -0.697533
     12 O5          17.0070    -6.2340   -23.7580 o          1 R7R      -0.697533
     13 O6          17.9900    -2.9040   -26.7320 os         1 R7R      -0.464000
     14 O7          17.9520    -3.1770   -29.0590 oh         1 R7R      -0.733000
     15 O8          19.7860    -1.1410   -29.3610 oh         1 R7R      -0.712000
     16 H1          20.5460    -3.5990   -28.6250 h1         1 R7R       0.075700
     17 H2          18.7350    -4.7750   -27.2440 h1         1 R7R       0.084700
     18 H3          19.2870    -5.2410   -24.7660 h1         1 R7R       0.074700
     19 H4          18.3190    -3.8070   -24.3880 h1         1 R7R       0.074700
     20 H5          17.4590    -1.4680   -28.0120 h2         1 R7R       0.066700
     21 H6          19.7040    -0.9930   -27.2990 h1         1 R7R       0.043700
     22 H7          22.5490    -2.9520   -27.6670 ho         1 R7R       0.515000
     23 H8          20.4810    -2.8170   -25.6870 h1         1 R7R       0.041700
     24 H9          21.4870    -4.7280   -25.4570 ho         1 R7R       0.506000
     25 H10         17.0140    -3.4090   -29.0660 ho         1 R7R       0.522000
     26 H11         20.6860    -0.7910   -29.3850 ho         1 R7R       0.508000
@<TRIPOS>BOND
     1     1     5 1   
     2     1     6 1   
     3     1     7 1   
     4     1    16 1   
     5     2     3 1   
     6     2     7 1   
     7     2    13 1   
     8     2    17 1   
     9     3     9 1   
    10     3    18 1   
    11     3    19 1   
    12     4     5 1   
    13     4    13 1   
    14     4    14 1   
    15     4    20 1   
    16     5    15 1   
    17     5    21 1   
    18     6    22 1   
    19     7     8 1   
    20     7    23 1   
    21     8    24 1   
    22     9    10 1   
    23     9    11 1   
    24     9    12 1   
    25    14    25 1   
    26    15    26 1   
@<TRIPOS>SUBSTRUCTURE
     1 R7R         1 TEMP              0 ****  ****    0 ROOT
