@<TRIPOS>MOLECULE
R7S
   54    57     1     0     0
SMALL
No Charge or Current Charge


@<TRIPOS>ATOM
      1 C1          14.0440   -11.1240    12.0640 c3         1 R7S      -0.121600
      2 O2          14.1100   -13.3920    11.2720 oh         1 R7S      -0.667000
      3 C3          15.8150   -12.7700    12.8360 c3         1 R7S      -0.121600
      4 C4          14.9610   -12.2970    11.6340 c3         1 R7S       0.162000
      5 C6          15.8790   -11.9300    10.4120 c3         1 R7S       0.182300
      6 C7          15.1110   -11.5670     9.1100 c3         1 R7S       0.077000
      7 F5          16.7170   -10.9120    10.7450 f          1 R7S      -0.260000
      8 N8          15.9990   -11.3220     7.9570 ns         1 R7S      -0.497900
      9 O9          16.1130    -9.0750     8.1710 o          1 R7S      -0.640100
     10 C10         16.4700   -10.0830     7.5770 c          1 R7S       0.646700
     11 C11         17.1800    -5.1610     6.3420 cx         1 R7S      -0.137400
     12 C12         17.4220    -5.6550     4.9370 cx         1 R7S      -0.137400
     13 C13         18.1100    -6.3220     6.1000 cx         1 R7S       0.162500
     14 N15         22.1890    -7.1030    -0.7600 nc         1 R7S      -0.515100
     15 C16         21.3050    -6.0990    -0.9010 cd         1 R7S       0.384100
     16 S17         19.8400    -6.1040     0.1170 ss         1 R7S       0.016800
     17 C18         21.7310    -9.9120     1.6600 ca         1 R7S      -0.155000
     18 C19         22.3230    -9.1200     0.6540 ca         1 R7S      -0.023000
     19 C20         21.6830    -7.9440     0.2260 ca         1 R7S       0.059400
     20 C21         20.4770    -7.5870     0.7990 ca         1 R7S      -0.156000
     21 C22         19.8670    -8.3580     1.8010 ca         1 R7S      -0.118000
     22 C23         20.5100    -9.5290     2.2500 ca         1 R7S       0.325000
     23 C25         17.9610    -8.8510     5.9130 ca         1 R7S       0.458000
     24 C26         18.8310    -8.9010     4.8300 ca         1 R7S      -0.333000
     25 C27         19.1130   -10.1350     4.2780 ca         1 R7S       0.664900
     26 N28         18.6480   -11.2830     4.7320 nb         1 R7S      -0.785000
     27 C29         17.8080   -11.2340     5.7810 ca         1 R7S       0.443900
     28 C30         17.4180   -10.0440     6.4120 ca         1 R7S      -0.345600
     29 H1          13.4480   -11.3930    12.9450 hc         1 R7S       0.048033
     30 H2          14.6370   -10.2380    12.3210 hc         1 R7S       0.048033
     31 H3          13.3460   -10.8460    11.2650 hc         1 R7S       0.048033
     32 H4          13.5780   -13.6190    12.0650 ho         1 R7S       0.449000
     33 H5          15.1810   -13.0820    13.6750 hc         1 R7S       0.048033
     34 H6          16.4480   -13.6200    12.5550 hc         1 R7S       0.048033
     35 H7          16.4680   -11.9650    13.1930 hc         1 R7S       0.048033
     36 H8          16.5050   -12.8040    10.1920 h1         1 R7S       0.056700
     37 H9          14.4890   -10.6790     9.2840 h1         1 R7S       0.077700
     38 H10         14.4360   -12.3930     8.8510 h1         1 R7S       0.077700
     39 H11         16.3130   -12.1220     7.4230 hn         1 R7S       0.313500
     40 H13         16.2100    -5.3630     6.7890 hc         1 R7S       0.080450
     41 H14         18.0320    -5.0400     4.2790 hc         1 R7S       0.080450
     42 H15         16.6190    -6.1940     4.4410 hc         1 R7S       0.080450
     43 H16         19.1830    -6.1530     6.2230 h1         1 R7S       0.086700
     44 H18         21.4320    -5.2850    -1.6030 h5         1 R7S       0.059800
     45 H19         22.2300   -10.8190     1.9880 ha         1 R7S       0.122000
     46 H20         23.2700    -9.4180     0.2090 ha         1 R7S       0.135000
     47 H21         18.9040    -8.0600     2.2040 ha         1 R7S       0.139000
     48 H23         19.2930    -8.0060     4.4380 ha         1 R7S       0.137000
     49 H24         17.4450   -12.2050     6.1130 h4         1 R7S       0.009100
     50 N14         17.6440    -7.6250     6.4800 nu         1 R7S      -0.933200
     51 N24         19.9530   -10.3420     3.2330 nu         1 R7S      -0.954900
     52 H12         17.6260    -4.2130     6.6310 hc         1 R7S       0.080450
     53 H17         16.9970    -7.7360     7.2730 hn         1 R7S       0.539000
     54 H22         20.2140   -11.3220     3.1920 hn         1 R7S       0.511000
@<TRIPOS>BOND
     1     1     4 1   
     2     1    29 1   
     3     1    30 1   
     4     1    31 1   
     5     2     4 1   
     6     2    32 1   
     7     3     4 1   
     8     3    33 1   
     9     3    34 1   
    10     3    35 1   
    11     4     5 1   
    12     5     6 1   
    13     5     7 1   
    14     5    36 1   
    15     6     8 1   
    16     6    37 1   
    17     6    38 1   
    18     8    10 1   
    19     8    39 1   
    20     9    10 2   
    21    10    28 1   
    22    11    12 1   
    23    11    13 1   
    24    11    40 1   
    25    11    52 1   
    26    12    13 1   
    27    12    41 1   
    28    12    42 1   
    29    13    43 1   
    30    13    50 1   
    31    14    15 2   
    32    14    19 1   
    33    15    16 1   
    34    15    44 1   
    35    16    20 1   
    36    17    18 ar  
    37    17    22 ar  
    38    17    45 1   
    39    18    19 ar  
    40    18    46 1   
    41    19    20 ar  
    42    20    21 ar  
    43    21    22 ar  
    44    21    47 1   
    45    22    51 1   
    46    23    24 ar  
    47    23    28 ar  
    48    23    50 1   
    49    24    25 ar  
    50    24    48 1   
    51    25    26 ar  
    52    25    51 1   
    53    26    27 ar  
    54    27    28 ar  
    55    27    49 1   
    56    50    53 1   
    57    51    54 1   
@<TRIPOS>SUBSTRUCTURE
     1 R7S         1 TEMP              0 ****  ****    0 ROOT
