@<TRIPOS>MOLECULE
R7S
   54    57     1     0     0
SMALL
abcg2


@<TRIPOS>ATOM
      1 C1          14.2280   -10.8990    11.9370 c3         1 R7S      -0.121600
      2 O2          14.4860   -13.2610    11.4380 oh         1 R7S      -0.667000
      3 C3          16.1690   -12.2070    12.8200 c3         1 R7S      -0.121600
      4 C4          15.1920   -12.0500    11.6560 c3         1 R7S       0.162000
      5 C6          15.9750   -11.8420    10.3520 c3         1 R7S       0.182300
      6 C7          15.1210   -11.7350     9.0980 c3         1 R7S       0.077000
      7 F5          16.7310   -10.6780    10.4730 f          1 R7S      -0.260000
      8 N8          15.9350   -11.5380     7.9230 ns         1 R7S      -0.497900
      9 O9          15.6070    -9.3130     7.7860 o          1 R7S      -0.640100
     10 C10         16.1460   -10.3330     7.3570 c          1 R7S       0.646700
     11 C11         17.3530    -5.4540     6.1140 cx         1 R7S      -0.137400
     12 C12         17.7780    -6.0110     4.7910 cx         1 R7S      -0.137400
     13 C13         18.1540    -6.7130     6.0640 cx         1 R7S       0.162500
     14 N15         22.3050    -6.6760     0.0060 nc         1 R7S      -0.515100
     15 C16         21.5310    -5.6550    -0.0730 cd         1 R7S       0.384100
     16 S17         19.9840    -5.7950     0.7110 ss         1 R7S       0.016800
     17 C18         21.5400    -9.8430     1.7420 ca         1 R7S      -0.155000
     18 C19         22.2590    -8.9390     0.9930 ca         1 R7S      -0.023000
     19 C20         21.7070    -7.6860     0.7230 ca         1 R7S       0.059400
     20 C21         20.4200    -7.3950     1.2000 ca         1 R7S      -0.156000
     21 C22         19.6730    -8.3100     1.9290 ca         1 R7S      -0.118000
     22 C23         20.2510    -9.5390     2.2230 ca         1 R7S       0.325000
     23 C25         17.6980    -9.0940     5.7780 ca         1 R7S       0.458000
     24 C26         18.5850    -9.1710     4.6980 ca         1 R7S      -0.333000
     25 C27         18.7390   -10.3700     4.0170 ca         1 R7S       0.664900
     26 N28         18.1020   -11.4950     4.3690 nb         1 R7S      -0.785000
     27 C29         17.3080   -11.4300     5.4220 ca         1 R7S       0.443900
     28 C30         17.0520   -10.2990     6.1860 ca         1 R7S      -0.345600
     29 H1          13.7300   -11.0540    12.8960 hc         1 R7S       0.048033
     30 H2          14.7520    -9.9450    11.9980 hc         1 R7S       0.048033
     31 H3          13.4530   -10.8120    11.1750 hc         1 R7S       0.048033
     32 H4          13.9790   -13.4610    12.2320 ho         1 R7S       0.449000
     33 H5          15.6250   -12.4280    13.7410 hc         1 R7S       0.048033
     34 H6          16.8710   -13.0230    12.6390 hc         1 R7S       0.048033
     35 H7          16.7410   -11.2960    12.9940 hc         1 R7S       0.048033
     36 H8          16.6840   -12.6700    10.2320 h1         1 R7S       0.056700
     37 H9          14.4110   -10.9150     9.1750 h1         1 R7S       0.077700
     38 H10         14.5480   -12.6540     8.9810 h1         1 R7S       0.077700
     39 H11         16.4910   -12.3230     7.6270 hn         1 R7S       0.313500
     40 H13         16.3070    -5.5360     6.3820 hc         1 R7S       0.080450
     41 H14         18.5640    -5.5070     4.2430 hc         1 R7S       0.080450
     42 H15         17.0200    -6.4740     4.1710 hc         1 R7S       0.080450
     43 H16         19.1970    -6.6410     6.3640 h1         1 R7S       0.086700
     44 H18         21.7870    -4.7420    -0.5920 h5         1 R7S       0.059800
     45 H19         21.9700   -10.8090     1.9750 ha         1 R7S       0.122000
     46 H20         23.2470    -9.1860     0.6290 ha         1 R7S       0.135000
     47 H21         18.6640    -8.0780     2.2400 ha         1 R7S       0.139000
     48 H23         19.1470    -8.2970     4.4100 ha         1 R7S       0.137000
     49 H24         16.8070   -12.3630     5.6600 h4         1 R7S       0.009100
     50 N14         17.5000    -7.9250     6.4150 nu         1 R7S      -0.933200
     51 N24         19.5750   -10.5200     2.9420 nu         1 R7S      -0.954900
     52 H12         17.8410    -4.5620     6.4830 hc         1 R7S       0.080450
     53 H17         16.8290    -7.9250     7.1680 hn         1 R7S       0.539000
     54 H22         19.7660   -11.4790     2.6950 hn         1 R7S       0.511000
@<TRIPOS>BOND
     1     1     4 1   
     2     1    29 1   
     3     1    30 1   
     4     1    31 1   
     5     2     4 1   
     6     2    32 1   
     7     3     4 1   
     8     3    33 1   
     9     3    34 1   
    10     3    35 1   
    11     4     5 1   
    12     5     6 1   
    13     5     7 1   
    14     5    36 1   
    15     6     8 1   
    16     6    37 1   
    17     6    38 1   
    18     8    10 1   
    19     8    39 1   
    20     9    10 2   
    21    10    28 1   
    22    11    12 1   
    23    11    13 1   
    24    11    40 1   
    25    11    52 1   
    26    12    13 1   
    27    12    41 1   
    28    12    42 1   
    29    13    43 1   
    30    13    50 1   
    31    14    15 2   
    32    14    19 1   
    33    15    16 1   
    34    15    44 1   
    35    16    20 1   
    36    17    18 ar  
    37    17    22 ar  
    38    17    45 1   
    39    18    19 ar  
    40    18    46 1   
    41    19    20 ar  
    42    20    21 ar  
    43    21    22 ar  
    44    21    47 1   
    45    22    51 1   
    46    23    24 ar  
    47    23    28 ar  
    48    23    50 1   
    49    24    25 ar  
    50    24    48 1   
    51    25    26 ar  
    52    25    51 1   
    53    26    27 ar  
    54    27    28 ar  
    55    27    49 1   
    56    50    53 1   
    57    51    54 1   
@<TRIPOS>SUBSTRUCTURE
     1 R7S         1 TEMP              0 ****  ****    0 ROOT
