@<TRIPOS>MOLECULE
R7T
   24    25     1     0     0
SMALL
abcg2


@<TRIPOS>ATOM
      1 O1           6.6670    47.9730    17.2060 o          1 R7T      -0.720500
      2 C7           5.6720    47.7510    16.4890 c          1 R7T       0.713600
      3 O2           4.8640    46.8080    16.5920 o          1 R7T      -0.720500
      4 C4           5.4170    48.7430    15.3580 ca         1 R7T      -0.128600
      5 C5           4.3660    48.5550    14.4590 ca         1 R7T      -0.089500
      6 C6           4.1340    49.4540    13.4310 ca         1 R7T      -0.134000
      7 C3           6.2250    49.8630    15.1890 ca         1 R7T      -0.089500
      8 C2           5.9920    50.7680    14.1610 ca         1 R7T      -0.134000
      9 C1           4.9450    50.5750    13.2680 ca         1 R7T      -0.121300
     10 C8           4.6730    51.5610    12.1600 c3         1 R7T       0.050200
     11 C9           3.4270    52.3590    12.4090 cc         1 R7T      -0.167300
     12 S            2.1060    52.3170    11.3070 ss         1 R7T       0.155000
     13 C12          1.1770    53.3980    12.2580 cc         1 R7T      -0.262000
     14 C11          1.8570    53.7740    13.3760 cd         1 R7T      -0.126000
     15 C10          3.1440    53.1770    13.4630 cd         1 R7T      -0.138000
     16 H2           3.7240    47.6910    14.5670 ha         1 R7T       0.126000
     17 H3           3.3120    49.2860    12.7440 ha         1 R7T       0.084000
     18 H4           7.0470    50.0300    15.8730 ha         1 R7T       0.126000
     19 H5           6.6360    51.6340    14.0520 ha         1 R7T       0.084000
     20 H6           4.5930    51.0320    11.2070 hc         1 R7T       0.043700
     21 H7           5.5210    52.2430    12.0570 hc         1 R7T       0.043700
     22 H8           0.1910    53.7020    11.9420 h4         1 R7T       0.138000
     23 H9           1.4550    54.4550    14.1140 ha         1 R7T       0.123000
     24 H10          3.8350    53.3420    14.2790 ha         1 R7T       0.142000
@<TRIPOS>BOND
     1     1     2 1   
     2     2     3 1   
     3     2     4 1   
     4     4     5 ar  
     5     4     7 ar  
     6     5     6 ar  
     7     5    16 1   
     8     6     9 ar  
     9     6    17 1   
    10     7     8 ar  
    11     7    18 1   
    12     8     9 ar  
    13     8    19 1   
    14     9    10 1   
    15    10    11 1   
    16    10    20 1   
    17    10    21 1   
    18    11    12 1   
    19    11    15 2   
    20    12    13 1   
    21    13    14 2   
    22    13    22 1   
    23    14    15 1   
    24    14    23 1   
    25    15    24 1   
@<TRIPOS>SUBSTRUCTURE
     1 R7T         1 TEMP              0 ****  ****    0 ROOT
