@<TRIPOS>MOLECULE
R7T
   24    25     1     0     0
SMALL
No Charge or Current Charge


@<TRIPOS>ATOM
      1 O1           6.5610    48.0270    17.3380 o          1 R7T      -0.720500
      2 C7           5.7070    47.7340    16.5120 c          1 R7T       0.713600
      3 O2           5.0700    46.6900    16.5610 o          1 R7T      -0.720500
      4 C4           5.4260    48.7080    15.3770 ca         1 R7T      -0.128600
      5 C5           4.4480    48.4170    14.3970 ca         1 R7T      -0.089500
      6 C6           4.1890    49.3180    13.3490 ca         1 R7T      -0.134000
      7 C3           6.1350    49.9290    15.2760 ca         1 R7T      -0.089500
      8 C2           5.8740    50.8270    14.2270 ca         1 R7T      -0.134000
      9 C1           4.9010    50.5280    13.2560 ca         1 R7T      -0.121300
     10 C8           4.6130    51.5020    12.1200 c3         1 R7T       0.050200
     11 C9           3.4040    52.3590    12.3850 cc         1 R7T      -0.167300
     12 S            1.9910    52.3060    11.3330 ss         1 R7T       0.155000
     13 C12          1.1650    53.5080    12.3200 cc         1 R7T      -0.262000
     14 C11          1.9470    53.8950    13.3780 cd         1 R7T      -0.126000
     15 C10          3.2100    53.2460    13.4150 cd         1 R7T      -0.138000
     16 H2           3.8820    47.4890    14.4440 ha         1 R7T       0.126000
     17 H3           3.4310    49.0760    12.6080 ha         1 R7T       0.084000
     18 H4           6.8930    50.1860    16.0130 ha         1 R7T       0.126000
     19 H5           6.4300    51.7600    14.1710 ha         1 R7T       0.084000
     20 H6           4.4730    50.9450    11.1840 hc         1 R7T       0.043700
     21 H7           5.4810    52.1500    11.9480 hc         1 R7T       0.043700
     22 H8           0.1690    53.8340    12.0480 h4         1 R7T       0.138000
     23 H9           1.6310    54.6270    14.1160 ha         1 R7T       0.123000
     24 H10          3.9530    53.4320    14.1850 ha         1 R7T       0.142000
@<TRIPOS>BOND
     1     1     2 1   
     2     2     3 1   
     3     2     4 1   
     4     4     5 ar  
     5     4     7 ar  
     6     5     6 ar  
     7     5    16 1   
     8     6     9 ar  
     9     6    17 1   
    10     7     8 ar  
    11     7    18 1   
    12     8     9 ar  
    13     8    19 1   
    14     9    10 1   
    15    10    11 1   
    16    10    20 1   
    17    10    21 1   
    18    11    12 1   
    19    11    15 2   
    20    12    13 1   
    21    13    14 2   
    22    13    22 1   
    23    14    15 1   
    24    14    23 1   
    25    15    24 1   
@<TRIPOS>SUBSTRUCTURE
     1 R7T         1 TEMP              0 ****  ****    0 ROOT
