@<TRIPOS>MOLECULE
R7V
   73    77     1     0     0
SMALL
No Charge or Current Charge


@<TRIPOS>ATOM
      1 C1         -23.8160    -9.3300   -25.5690 ca         1 R7V      -0.078000
      2 C2         -24.0550    -7.9670   -25.8010 ca         1 R7V      -0.096000
      3 C3         -24.3370    -7.0760   -24.7440 ca         1 R7V      -0.046300
      4 C4         -24.3070    -7.5920   -23.4250 ca         1 R7V      -0.059300
      5 C5         -24.0730    -8.9620   -23.1950 ca         1 R7V      -0.068000
      6 C6         -23.8370    -9.8580   -24.2610 ca         1 R7V      -0.148300
      7 C7         -24.6740    -5.5940   -25.0640 c5         1 R7V      -0.186700
      8 C8         -24.8420    -4.7330   -23.7640 c5         1 R7V       0.133700
      9 C9         -24.0410    -5.2500   -22.5540 c6         1 R7V      -0.084400
     10 C10        -24.5000    -6.6750   -22.2220 c6         1 R7V      -0.036100
     11 C11        -23.4240    -4.9560   -25.7470 c5         1 R7V      -0.065400
     12 C12        -23.6300    -3.4420   -25.5000 c5         1 R7V       0.115000
     13 N13        -24.3270    -3.4080   -24.1890 n          1 R7V      -0.419800
     14 C14        -23.6030   -11.3730   -23.9960 c3         1 R7V       0.139300
     15 F15        -23.6820   -11.6190   -22.6580 f          1 R7V      -0.211000
     16 C16        -27.4930    -6.4050   -25.2180 ca         1 R7V      -0.288500
     17 C17        -27.5470    -7.8020   -25.4080 ca         1 R7V       0.015000
     18 C18        -28.4850    -8.5690   -24.6970 ca         1 R7V      -0.173000
     19 C19        -29.3650    -7.9450   -23.8010 ca         1 R7V       0.216000
     20 C20        -29.3170    -6.5570   -23.6100 ca         1 R7V      -0.173000
     21 C21        -28.3810    -5.7820   -24.3150 ca         1 R7V       0.015000
     22 C22        -24.7750    -2.2160   -23.5700 c          1 R7V       0.621100
     23 C23        -24.2570    -0.8370   -24.0700 c6         1 R7V      -0.121700
     24 C24        -23.9510     0.1740   -22.9280 c6         1 R7V      -0.061400
     25 C25        -23.3040     1.4680   -23.4820 c6         1 R7V      -0.058400
     26 C26        -24.1690     2.1100   -24.6050 c6         1 R7V      -0.184700
     27 C27        -24.4420     1.0820   -25.7460 c6         1 R7V      -0.055400
     28 C28        -25.1080    -0.2270   -25.2300 c6         1 R7V      -0.048700
     29 C29        -26.6000    -0.0110   -24.8420 c3         1 R7V      -0.086100
     30 O30        -25.5730    -2.2700   -22.6400 o          1 R7V      -0.622100
     31 F31        -30.2640    -8.6870   -23.1180 f          1 R7V      -0.176000
     32 S32        -26.2520    -5.4290   -26.0920 sy         1 R7V       1.038500
     33 O33        -26.0110    -6.0850   -27.3840 o          1 R7V      -0.510500
     34 O34        -26.6890    -4.0260   -26.0540 o          1 R7V      -0.510500
     35 C35        -22.1540   -11.8080   -24.4290 c3         1 R7V       0.287500
     36 F36        -21.2210   -11.0030   -23.8680 f          1 R7V      -0.092167
     37 F37        -21.8800   -13.0810   -24.0560 f          1 R7V      -0.092167
     38 F38        -21.9760   -11.7470   -25.7690 f          1 R7V      -0.092167
     39 C39        -23.5460     3.4230   -25.1410 c          1 R7V       0.709000
     40 O40        -22.4530     3.3710   -25.6870 o          1 R7V      -0.738000
     41 O41        -24.1770     4.4590   -24.9950 o          1 R7V      -0.738000
     42 C42        -24.7340   -12.2410   -24.6600 c3         1 R7V       0.287500
     43 F43        -24.6820   -12.2110   -26.0120 f          1 R7V      -0.092167
     44 F44        -24.6480   -13.5420   -24.2950 f          1 R7V      -0.092167
     45 F45        -25.9600   -11.7910   -24.3020 f          1 R7V      -0.092167
     46 H1         -23.6220    -9.9670   -26.4280 ha         1 R7V       0.134000
     47 H2         -24.0300    -7.6090   -26.8270 ha         1 R7V       0.144000
     48 H3         -24.0760    -9.3170   -22.1680 ha         1 R7V       0.132000
     49 H4         -25.8970    -4.6760   -23.4600 h1         1 R7V       0.077700
     50 H5         -22.9650    -5.2450   -22.7750 hc         1 R7V       0.065700
     51 H6         -24.1940    -4.5930   -21.6870 hc         1 R7V       0.065700
     52 H7         -25.5580    -6.6740   -21.9250 hc         1 R7V       0.058200
     53 H8         -23.9310    -7.0490   -21.3600 hc         1 R7V       0.058200
     54 H9         -23.3340    -5.1960   -26.8120 hc         1 R7V       0.065700
     55 H10        -22.4980    -5.2920   -25.2660 hc         1 R7V       0.065700
     56 H11        -22.6650    -2.9180   -25.4770 h1         1 R7V       0.062200
     57 H12        -24.2460    -2.9910   -26.2880 h1         1 R7V       0.062200
     58 H13        -26.8640    -8.2970   -26.0970 ha         1 R7V       0.147500
     59 H14        -28.5270    -9.6460   -24.8360 ha         1 R7V       0.140500
     60 H15        -30.0030    -6.0840   -22.9120 ha         1 R7V       0.140500
     61 H16        -28.3500    -4.7050   -24.1520 ha         1 R7V       0.147500
     62 H17        -23.2940    -1.0490   -24.5490 hc         1 R7V       0.050700
     63 H18        -24.8730     0.4240   -22.3860 hc         1 R7V       0.034700
     64 H19        -23.2760    -0.2870   -22.1930 hc         1 R7V       0.034700
     65 H20        -22.3020     1.2370   -23.8690 hc         1 R7V       0.043200
     66 H21        -23.1620     2.1870   -22.6640 hc         1 R7V       0.043200
     67 H22        -25.1350     2.3870   -24.1610 hc         1 R7V       0.038700
     68 H23        -23.4950     0.8300   -26.2430 hc         1 R7V       0.042200
     69 H24        -25.0730     1.5430   -26.5180 hc         1 R7V       0.042200
     70 H25        -25.1280    -0.9380   -26.0660 hc         1 R7V       0.016700
     71 H26        -27.0950    -0.9640   -24.6200 hc         1 R7V       0.036367
     72 H27        -26.7110     0.6320   -23.9610 hc         1 R7V       0.036367
     73 H28        -27.1570     0.4540   -25.6640 hc         1 R7V       0.036367
@<TRIPOS>BOND
     1     1     2 ar  
     2     1     6 ar  
     3     1    46 1   
     4     2     3 ar  
     5     2    47 1   
     6     3     4 ar  
     7     3     7 1   
     8     4     5 ar  
     9     4    10 1   
    10     5     6 ar  
    11     5    48 1   
    12     6    14 1   
    13     7     8 1   
    14     7    11 1   
    15     7    32 1   
    16     8     9 1   
    17     8    13 1   
    18     8    49 1   
    19     9    10 1   
    20     9    50 1   
    21     9    51 1   
    22    10    52 1   
    23    10    53 1   
    24    11    12 1   
    25    11    54 1   
    26    11    55 1   
    27    12    13 1   
    28    12    56 1   
    29    12    57 1   
    30    13    22 1   
    31    14    15 1   
    32    14    35 1   
    33    14    42 1   
    34    16    17 ar  
    35    16    21 ar  
    36    16    32 1   
    37    17    18 ar  
    38    17    58 1   
    39    18    19 ar  
    40    18    59 1   
    41    19    20 ar  
    42    19    31 1   
    43    20    21 ar  
    44    20    60 1   
    45    21    61 1   
    46    22    23 1   
    47    22    30 2   
    48    23    24 1   
    49    23    28 1   
    50    23    62 1   
    51    24    25 1   
    52    24    63 1   
    53    24    64 1   
    54    25    26 1   
    55    25    65 1   
    56    25    66 1   
    57    26    27 1   
    58    26    39 1   
    59    26    67 1   
    60    27    28 1   
    61    27    68 1   
    62    27    69 1   
    63    28    29 1   
    64    28    70 1   
    65    29    71 1   
    66    29    72 1   
    67    29    73 1   
    68    32    33 2   
    69    32    34 2   
    70    35    36 1   
    71    35    37 1   
    72    35    38 1   
    73    39    40 1   
    74    39    41 1   
    75    42    43 1   
    76    42    44 1   
    77    42    45 1   
@<TRIPOS>SUBSTRUCTURE
     1 R7V         1 TEMP              0 ****  ****    0 ROOT
