@<TRIPOS>MOLECULE
R7V
   73    77     1     0     0
SMALL
abcg2


@<TRIPOS>ATOM
      1 C1         -23.6340    -9.0690   -25.7020 ca         1 R7V      -0.078000
      2 C2         -23.8400    -7.7080   -25.8360 ca         1 R7V      -0.096000
      3 C3         -24.2640    -6.9280   -24.7580 ca         1 R7V      -0.046300
      4 C4         -24.4180    -7.5290   -23.5040 ca         1 R7V      -0.059300
      5 C5         -24.1980    -8.8970   -23.3710 ca         1 R7V      -0.068000
      6 C6         -23.8310    -9.6750   -24.4610 ca         1 R7V      -0.148300
      7 C7         -24.6550    -5.4840   -24.9840 c5         1 R7V      -0.186700
      8 C8         -24.8660    -4.6390   -23.6920 c5         1 R7V       0.133700
      9 C9         -24.2530    -5.2880   -22.4560 c6         1 R7V      -0.084400
     10 C10        -24.7950    -6.7040   -22.3050 c6         1 R7V      -0.036100
     11 C11        -23.6740    -4.6600   -25.8660 c5         1 R7V      -0.065400
     12 C12        -23.1720    -3.5370   -24.9570 c5         1 R7V       0.115000
     13 N13        -24.2680    -3.3500   -24.0140 n          1 R7V      -0.419800
     14 C14        -23.6960   -11.1730   -24.2760 c3         1 R7V       0.139300
     15 F15        -23.6390   -11.4900   -22.9310 f          1 R7V      -0.211000
     16 C16        -27.3710    -6.4640   -24.8890 ca         1 R7V      -0.288500
     17 C17        -27.3400    -7.8540   -24.9830 ca         1 R7V       0.015000
     18 C18        -28.1690    -8.6110   -24.1720 ca         1 R7V      -0.173000
     19 C19        -29.0130    -7.9520   -23.2940 ca         1 R7V       0.216000
     20 C20        -29.0710    -6.5720   -23.1960 ca         1 R7V      -0.173000
     21 C21        -28.2340    -5.8190   -24.0060 ca         1 R7V       0.015000
     22 C22        -24.7590    -2.2040   -23.4890 c          1 R7V       0.621100
     23 C23        -24.1630    -0.8930   -23.9740 c6         1 R7V      -0.121700
     24 C24        -24.3470     0.2230   -22.9420 c6         1 R7V      -0.061400
     25 C25        -23.7270     1.5330   -23.4290 c6         1 R7V      -0.058400
     26 C26        -24.2960     1.9630   -24.7820 c6         1 R7V      -0.184700
     27 C27        -24.1170     0.8310   -25.8050 c6         1 R7V      -0.055400
     28 C28        -24.7480    -0.4960   -25.3580 c6         1 R7V      -0.048700
     29 C29        -26.2780    -0.4500   -25.3820 c3         1 R7V      -0.086100
     30 O30        -25.6840    -2.2360   -22.6710 o          1 R7V      -0.622100
     31 F31        -29.8190    -8.6880   -22.5020 f          1 R7V      -0.176000
     32 S32        -26.2780    -5.5020   -25.8960 sy         1 R7V       1.038500
     33 O33        -26.0830    -6.2030   -27.1510 o          1 R7V      -0.510500
     34 O34        -26.7760    -4.1390   -25.9460 o          1 R7V      -0.510500
     35 C35        -22.3790   -11.7540   -24.8710 c3         1 R7V       0.287500
     36 F36        -21.3400   -11.0040   -24.4840 f          1 R7V      -0.092167
     37 F37        -22.1630   -13.0020   -24.4400 f          1 R7V      -0.092167
     38 F38        -22.4010   -11.7810   -26.2120 f          1 R7V      -0.092167
     39 C39        -23.6620     3.2600   -25.3230 c          1 R7V       0.709000
     40 O40        -22.4070     3.3570   -25.2820 o          1 R7V      -0.738000
     41 O41        -24.4470     4.1260   -25.7970 o          1 R7V      -0.738000
     42 C42        -24.9600   -11.9110   -24.8070 c3         1 R7V       0.287500
     43 F43        -25.1660   -11.6620   -26.1060 f          1 R7V      -0.092167
     44 F44        -24.8690   -13.2390   -24.6480 f          1 R7V      -0.092167
     45 F45        -26.0350   -11.4950   -24.1250 f          1 R7V      -0.092167
     46 H1         -23.3370    -9.6420   -26.5670 ha         1 R7V       0.134000
     47 H2         -23.7060    -7.2560   -26.8080 ha         1 R7V       0.144000
     48 H3         -24.3280    -9.3520   -22.3990 ha         1 R7V       0.132000
     49 H4         -25.9210    -4.4740   -23.4890 h1         1 R7V       0.077700
     50 H5         -23.1640    -5.3170   -22.5490 hc         1 R7V       0.065700
     51 H6         -24.4990    -4.6780   -21.5880 hc         1 R7V       0.065700
     52 H7         -25.8850    -6.6730   -22.2010 hc         1 R7V       0.058200
     53 H8         -24.4090    -7.1760   -21.4010 hc         1 R7V       0.058200
     54 H9         -24.1860    -4.2320   -26.7270 hc         1 R7V       0.065700
     55 H10        -22.8620    -5.2790   -26.2360 hc         1 R7V       0.065700
     56 H11        -22.2670    -3.8430   -24.4250 h1         1 R7V       0.062200
     57 H12        -22.9540    -2.6320   -25.5110 h1         1 R7V       0.062200
     58 H13        -26.6770    -8.3430   -25.6820 ha         1 R7V       0.147500
     59 H14        -28.1670    -9.6910   -24.2180 ha         1 R7V       0.140500
     60 H15        -29.7550    -6.1020   -22.5020 ha         1 R7V       0.140500
     61 H16        -28.2570    -4.7390   -23.9570 ha         1 R7V       0.147500
     62 H17        -23.0880    -1.0340   -24.1150 hc         1 R7V       0.050700
     63 H18        -25.4100     0.3670   -22.7410 hc         1 R7V       0.034700
     64 H19        -23.8900    -0.0810   -21.9970 hc         1 R7V       0.034700
     65 H20        -22.6440     1.4160   -23.5260 hc         1 R7V       0.043200
     66 H21        -23.8960     2.3180   -22.6860 hc         1 R7V       0.043200
     67 H22        -25.3650     2.1590   -24.6660 hc         1 R7V       0.038700
     68 H23        -23.0460     0.6780   -25.9650 hc         1 R7V       0.042200
     69 H24        -24.5480     1.1250   -26.7660 hc         1 R7V       0.042200
     70 H25        -24.4440    -1.2580   -26.0810 hc         1 R7V       0.016700
     71 H26        -26.7070    -1.4280   -25.1620 hc         1 R7V       0.036367
     72 H27        -26.6820     0.2630   -24.6620 hc         1 R7V       0.036367
     73 H28        -26.6220    -0.1500   -26.3750 hc         1 R7V       0.036367
@<TRIPOS>BOND
     1     1     2 ar  
     2     1     6 ar  
     3     1    46 1   
     4     2     3 ar  
     5     2    47 1   
     6     3     4 ar  
     7     3     7 1   
     8     4     5 ar  
     9     4    10 1   
    10     5     6 ar  
    11     5    48 1   
    12     6    14 1   
    13     7     8 1   
    14     7    11 1   
    15     7    32 1   
    16     8     9 1   
    17     8    13 1   
    18     8    49 1   
    19     9    10 1   
    20     9    50 1   
    21     9    51 1   
    22    10    52 1   
    23    10    53 1   
    24    11    12 1   
    25    11    54 1   
    26    11    55 1   
    27    12    13 1   
    28    12    56 1   
    29    12    57 1   
    30    13    22 1   
    31    14    15 1   
    32    14    35 1   
    33    14    42 1   
    34    16    17 ar  
    35    16    21 ar  
    36    16    32 1   
    37    17    18 ar  
    38    17    58 1   
    39    18    19 ar  
    40    18    59 1   
    41    19    20 ar  
    42    19    31 1   
    43    20    21 ar  
    44    20    60 1   
    45    21    61 1   
    46    22    23 1   
    47    22    30 2   
    48    23    24 1   
    49    23    28 1   
    50    23    62 1   
    51    24    25 1   
    52    24    63 1   
    53    24    64 1   
    54    25    26 1   
    55    25    65 1   
    56    25    66 1   
    57    26    27 1   
    58    26    39 1   
    59    26    67 1   
    60    27    28 1   
    61    27    68 1   
    62    27    69 1   
    63    28    29 1   
    64    28    70 1   
    65    29    71 1   
    66    29    72 1   
    67    29    73 1   
    68    32    33 2   
    69    32    34 2   
    70    35    36 1   
    71    35    37 1   
    72    35    38 1   
    73    39    40 1   
    74    39    41 1   
    75    42    43 1   
    76    42    44 1   
    77    42    45 1   
@<TRIPOS>SUBSTRUCTURE
     1 R7V         1 TEMP              0 ****  ****    0 ROOT
