@<TRIPOS>MOLECULE
R7X
   47    49     1     0     0
SMALL
abcg2


@<TRIPOS>ATOM
      1 C4          -6.7380     4.7860    -3.6630 ca         1 R7X      -0.057000
      2 C5          -6.0020     3.6340    -3.4010 ca         1 R7X      -0.084300
      3 C6          -6.2600     2.4890    -4.1540 ca         1 R7X      -0.063000
      4 C11         -0.7130     3.2550    -3.5140 c          1 R7X       0.617100
      5 C8          -4.9420     3.6300    -2.3380 c3         1 R7X      -0.099100
      6 C9          -0.3510     3.9540    -1.1130 c5         1 R7X      -0.085400
      7 C12         -1.1760     4.1850    -2.3950 c5         1 R7X       0.035700
      8 C3          -3.5520     3.9580    -2.8750 c          1 R7X       0.604100
      9 C1          -1.3590     4.1950     0.0120 c5         1 R7X      -0.092400
     10 C2          -2.6530     3.6090    -0.5460 c5         1 R7X       0.109000
     11 C15          0.8260     3.2990    -5.4730 ca         1 R7X       0.487900
     12 C16          0.7350     1.9610    -5.8630 ca         1 R7X      -0.168000
     13 C17          1.4900     1.5540    -6.9530 ca         1 R7X      -0.050000
     14 C18          2.3030     2.4580    -7.6270 ca         1 R7X      -0.168000
     15 C19          2.3030     3.7570    -7.1430 ca         1 R7X       0.451200
     16 C22         -7.7180     4.8080    -4.6590 ca         1 R7X      -0.176600
     17 C26         -8.2430     7.2820    -4.1430 c3         1 R7X      -0.193100
     18 C25         -8.5150     6.0360    -4.9460 c          1 R7X       0.579700
     19 O27         -9.3720     6.0330    -5.8170 o          1 R7X      -0.530100
     20 C23         -7.9590     3.6490    -5.4040 ca         1 R7X      -0.049000
     21 C24         -7.2320     2.4970    -5.1500 ca         1 R7X      -0.122000
     22 O13         -3.3480     4.2590    -4.0530 o          1 R7X      -0.591100
     23 N7          -2.5460     3.8940    -1.9830 n          1 R7X      -0.413800
     24 O10         -1.0250     2.0770    -3.5530 o          1 R7X      -0.567100
     25 N14          0.1340     3.8580    -4.4010 ns         1 R7X      -0.313900
     26 N21          1.6060     4.1800    -6.1150 nb         1 R7X      -0.713000
     27 BR20         3.4010     5.0740    -8.0240 br         1 R7X      -0.173200
     28 H1          -6.5400     5.6720    -3.0750 ha         1 R7X       0.109000
     29 H2          -5.6950     1.5850    -3.9580 ha         1 R7X       0.117000
     30 H3          -5.1850     4.3580    -1.5600 hc         1 R7X       0.064700
     31 H4          -4.8970     2.6560    -1.8460 hc         1 R7X       0.064700
     32 H5          -0.0020     2.9200    -1.0870 hc         1 R7X       0.066200
     33 H6           0.5150     4.6120    -1.0720 hc         1 R7X       0.066200
     34 H7          -1.1050     5.2230    -2.7270 h1         1 R7X       0.071700
     35 H8          -1.0640     3.7260     0.9500 hc         1 R7X       0.059700
     36 H9          -1.4840     5.2660     0.1850 hc         1 R7X       0.059700
     37 H10         -3.5410     4.0730    -0.1220 h1         1 R7X       0.052700
     38 H11         -2.7090     2.5300    -0.3760 h1         1 R7X       0.052700
     39 H12          0.0960     1.2800    -5.3290 ha         1 R7X       0.162000
     40 H13          1.4450     0.5240    -7.2820 ha         1 R7X       0.126000
     41 H14          2.9000     2.1700    -8.4790 ha         1 R7X       0.142000
     42 H15         -8.9010     8.0790    -4.4810 hc         1 R7X       0.061367
     43 H16         -8.4090     7.0960    -3.0800 hc         1 R7X       0.061367
     44 H17         -7.2020     7.5930    -4.2570 hc         1 R7X       0.061367
     45 H18         -8.7190     3.6670    -6.1720 ha         1 R7X       0.135000
     46 H19         -7.4220     1.5990    -5.7250 ha         1 R7X       0.120000
     47 H20          0.3100     4.8450    -4.2770 hn         1 R7X       0.171000
@<TRIPOS>BOND
     1     1     2 ar  
     2     1    16 ar  
     3     1    28 1   
     4     2     3 ar  
     5     2     5 1   
     6     3    21 ar  
     7     3    29 1   
     8     4     7 1   
     9     4    24 2   
    10     4    25 1   
    11     5     8 1   
    12     5    30 1   
    13     5    31 1   
    14     6     7 1   
    15     6     9 1   
    16     6    32 1   
    17     6    33 1   
    18     7    23 1   
    19     7    34 1   
    20     8    22 2   
    21     8    23 1   
    22     9    10 1   
    23     9    35 1   
    24     9    36 1   
    25    10    23 1   
    26    10    37 1   
    27    10    38 1   
    28    11    12 ar  
    29    11    25 1   
    30    11    26 ar  
    31    12    13 ar  
    32    12    39 1   
    33    13    14 ar  
    34    13    40 1   
    35    14    15 ar  
    36    14    41 1   
    37    15    26 ar  
    38    15    27 1   
    39    16    18 1   
    40    16    20 ar  
    41    17    18 1   
    42    17    42 1   
    43    17    43 1   
    44    17    44 1   
    45    18    19 2   
    46    20    21 ar  
    47    20    45 1   
    48    21    46 1   
    49    25    47 1   
@<TRIPOS>SUBSTRUCTURE
     1 R7X         1 TEMP              0 ****  ****    0 ROOT
