@<TRIPOS>MOLECULE
R7X
   47    49     1     0     0
SMALL
No Charge or Current Charge


@<TRIPOS>ATOM
      1 C4          -6.2820     4.9340    -3.6970 ca         1 R7X      -0.057000
      2 C5          -5.8380     4.4200    -2.4630 ca         1 R7X      -0.084300
      3 C6          -6.2840     3.1560    -2.0370 ca         1 R7X      -0.063000
      4 C11         -1.2670     3.5260    -3.8230 c          1 R7X       0.617100
      5 C8          -4.8700     5.2270    -1.6020 c3         1 R7X      -0.099100
      6 C9          -0.7980     2.5780    -1.5220 c5         1 R7X      -0.085400
      7 C12         -1.2330     3.8600    -2.2940 c5         1 R7X       0.035700
      8 C3          -3.4400     5.1230    -2.1670 c          1 R7X       0.604100
      9 C1          -1.3550     2.8540    -0.1060 c5         1 R7X      -0.092400
     10 C2          -2.7810     3.3740    -0.4180 c5         1 R7X       0.109000
     11 C15          0.4520     3.6820    -5.6650 ca         1 R7X       0.487900
     12 C16         -0.3310     3.4430    -6.8120 ca         1 R7X      -0.168000
     13 C17          0.3060     3.3580    -8.0620 ca         1 R7X      -0.050000
     14 C18          1.7000     3.5190    -8.1020 ca         1 R7X      -0.168000
     15 C19          2.3920     3.7590    -6.9050 ca         1 R7X       0.451200
     16 C22         -7.1700     4.1960    -4.5160 ca         1 R7X      -0.176600
     17 C26         -7.1700     6.0910    -6.3480 c3         1 R7X      -0.193100
     18 C25         -7.6560     4.7280    -5.8510 c          1 R7X       0.579700
     19 O27         -8.4350     4.0800    -6.5400 o          1 R7X      -0.530100
     20 C23         -7.6060     2.9280    -4.0680 ca         1 R7X      -0.049000
     21 C24         -7.1650     2.4140    -2.8380 ca         1 R7X      -0.122000
     22 O13         -3.0850     5.8540    -3.0850 o          1 R7X      -0.591100
     23 N7          -2.5590     4.1370    -1.6660 n          1 R7X      -0.413800
     24 O10         -2.2170     3.0890    -4.4610 o          1 R7X      -0.567100
     25 N14         -0.0260     3.7960    -4.3560 ns         1 R7X      -0.313900
     26 N21          1.7880     3.8420    -5.7010 nb         1 R7X      -0.713000
     27 Br20         4.2890     3.9880    -6.9130 br         1 R7X      -0.173200
     28 H1          -5.9210     5.9120    -4.0080 ha         1 R7X       0.109000
     29 H2          -5.9490     2.7450    -1.0870 ha         1 R7X       0.117000
     30 H3          -5.1750     6.2800    -1.6140 hc         1 R7X       0.064700
     31 H4          -4.9220     4.8570    -0.5750 hc         1 R7X       0.064700
     32 H5          -1.2520     1.6740    -1.9470 hc         1 R7X       0.066200
     33 H6           0.2890     2.4310    -1.5280 hc         1 R7X       0.066200
     34 H7          -0.5450     4.6970    -2.1140 h1         1 R7X       0.071700
     35 H8          -1.3650     1.9620     0.5310 hc         1 R7X       0.059700
     36 H9          -0.7620     3.6190     0.4100 hc         1 R7X       0.059700
     37 H10         -3.1590     3.9980     0.4030 h1         1 R7X       0.052700
     38 H11         -3.4840     2.5480    -0.5890 h1         1 R7X       0.052700
     39 H12         -1.4070     3.3320    -6.7510 ha         1 R7X       0.162000
     40 H13         -0.2640     3.1750    -8.9710 ha         1 R7X       0.126000
     41 H14          2.2400     3.4630    -9.0430 ha         1 R7X       0.142000
     42 H15         -7.5880     6.3570    -7.3260 hc         1 R7X       0.061367
     43 H16         -7.4040     6.8520    -5.5950 hc         1 R7X       0.061367
     44 H17         -6.0750     6.0970    -6.3660 hc         1 R7X       0.061367
     45 H18         -8.2890     2.3330    -4.6720 ha         1 R7X       0.135000
     46 H19         -7.5080     1.4370    -2.5050 ha         1 R7X       0.120000
     47 H20          0.6690     4.1230    -3.7000 hn         1 R7X       0.171000
@<TRIPOS>BOND
     1     1     2 ar  
     2     1    16 ar  
     3     1    28 1   
     4     2     3 ar  
     5     2     5 1   
     6     3    21 ar  
     7     3    29 1   
     8     4     7 1   
     9     4    24 2   
    10     4    25 1   
    11     5     8 1   
    12     5    30 1   
    13     5    31 1   
    14     6     7 1   
    15     6     9 1   
    16     6    32 1   
    17     6    33 1   
    18     7    23 1   
    19     7    34 1   
    20     8    22 2   
    21     8    23 1   
    22     9    10 1   
    23     9    35 1   
    24     9    36 1   
    25    10    23 1   
    26    10    37 1   
    27    10    38 1   
    28    11    12 ar  
    29    11    25 1   
    30    11    26 ar  
    31    12    13 ar  
    32    12    39 1   
    33    13    14 ar  
    34    13    40 1   
    35    14    15 ar  
    36    14    41 1   
    37    15    26 ar  
    38    15    27 1   
    39    16    18 1   
    40    16    20 ar  
    41    17    18 1   
    42    17    42 1   
    43    17    43 1   
    44    17    44 1   
    45    18    19 2   
    46    20    21 ar  
    47    20    45 1   
    48    21    46 1   
    49    25    47 1   
@<TRIPOS>SUBSTRUCTURE
     1 R7X         1 TEMP              0 ****  ****    0 ROOT
