@<TRIPOS>MOLECULE
R7Y
   74    76     1     0     0
SMALL
abcg2


@<TRIPOS>ATOM
      1 C01        -13.2640    10.6300    20.7590 c3         1 R7Y      -0.183100
      2 C02        -11.8760    11.1650    21.0140 c          1 R7Y       0.600100
      3 C05        -10.1260    12.6670    20.1300 c6         1 R7Y       0.087700
      4 C06        -10.2720    14.1800    20.2490 c6         1 R7Y      -0.134400
      5 C07         -8.8950    14.8350    20.2760 c6         1 R7Y       0.145300
      6 C09         -8.1060    14.4100    19.0430 c6         1 R7Y       0.172300
      7 C10         -6.6740    14.9110    19.0370 c3         1 R7Y       0.160800
      8 C13         -9.2510    12.3000    18.9290 c6         1 R7Y       0.375300
      9 C15         -9.6330    11.7800    16.6210 c6         1 R7Y       0.101300
     10 C16         -9.5670    12.6710    15.3770 c6         1 R7Y       0.167500
     11 C18         -9.2520    11.7930    14.1720 c6         1 R7Y      -0.080400
     12 C19        -10.2660    10.6760    13.9760 c6         1 R7Y       0.150500
     13 C21        -10.3480     9.8120    15.2320 c6         1 R7Y       0.186300
     14 C23        -10.9600     7.5150    14.8990 c6         1 R7Y       0.387300
     15 C25        -11.8740     6.7170    16.9420 c6         1 R7Y       0.145300
     16 C26        -11.4210     6.1150    18.2550 c3         1 R7Y       0.161600
     17 C28        -12.9450     5.8980    16.2170 c6         1 R7Y       0.145300
     18 C30        -13.3080     6.5850    14.9060 c6         1 R7Y       0.137500
     19 C32        -12.0300     6.7800    14.0940 c6         1 R7Y       0.152300
     20 C34        -10.6710    10.6640    16.4540 c6         1 R7Y       0.149300
     21 N04        -11.4050    12.0010    20.0600 ns         1 R7Y      -0.511900
     22 N11         -5.9940    14.5300    17.8090 n8         1 R7Y      -1.002200
     23 N17         -8.6120    13.7600    15.4480 n8         1 R7Y      -0.994200
     24 N20         -9.8760     9.8550    12.8410 n8         1 R7Y      -1.009200
     25 N31        -14.2350     5.7560    14.1520 n8         1 R7Y      -1.004200
     26 O03        -11.2270    10.8340    21.9930 o          1 R7Y      -0.596100
     27 O08         -8.9770    16.2400    20.2620 oh         1 R7Y      -0.712000
     28 O12         -8.0390    12.9910    18.9760 os         1 R7Y      -0.478000
     29 O14         -9.9690    12.5580    17.7600 os         1 R7Y      -0.498000
     30 O22        -11.3620     8.8380    15.0660 os         1 R7Y      -0.474000
     31 O24        -10.7310     6.8600    16.1110 os         1 R7Y      -0.451000
     32 O27        -10.9750     4.7940    18.0560 oh         1 R7Y      -0.717000
     33 O29        -14.1170     5.7900    16.9960 oh         1 R7Y      -0.728000
     34 O33        -12.2740     7.4940    12.9010 oh         1 R7Y      -0.719000
     35 O35        -10.7030     9.8230    17.5810 oh         1 R7Y      -0.714000
     36 H1         -13.8680    10.7350    21.6600 hc         1 R7Y       0.063367
     37 H2         -13.7770    11.1190    19.9340 hc         1 R7Y       0.063367
     38 H3         -13.1980     9.5650    20.5350 hc         1 R7Y       0.063367
     39 H4          -9.6150    12.2920    21.0180 h1         1 R7Y       0.098700
     40 H5         -10.8220    14.4210    21.1620 hc         1 R7Y       0.060200
     41 H6         -10.8460    14.5780    19.4060 hc         1 R7Y       0.060200
     42 H7          -8.3570    14.4800    21.1700 h1         1 R7Y       0.041700
     43 H8          -8.6180    14.8100    18.1580 h1         1 R7Y       0.067700
     44 H9          -6.1730    14.5600    19.9520 h1         1 R7Y       0.043700
     45 H10         -6.6960    16.0000    19.0910 h1         1 R7Y       0.043700
     46 H11         -8.9740    11.2420    18.9900 h2         1 R7Y       0.089700
     47 H12         -8.6410    11.3230    16.7590 h1         1 R7Y       0.059700
     48 H13        -10.5570    13.1180    15.2250 h1         1 R7Y       0.063700
     49 H14         -8.2510    11.3590    14.2840 hc         1 R7Y       0.061200
     50 H15         -9.2240    12.4190    13.2770 hc         1 R7Y       0.061200
     51 H16        -11.2560    11.1430    13.8370 h1         1 R7Y       0.029700
     52 H17         -9.3710     9.3300    15.3850 h1         1 R7Y       0.069700
     53 H18        -10.0050     7.4680    14.3620 h2         1 R7Y       0.087700
     54 H19        -12.2940     7.7000    17.1860 h1         1 R7Y       0.065700
     55 H20        -10.6320     6.7560    18.6710 h1         1 R7Y       0.031700
     56 H21        -12.2620     6.1630    18.9580 h1         1 R7Y       0.031700
     57 H22        -12.5450     4.9040    15.9760 h1         1 R7Y       0.069700
     58 H23        -13.7250     7.5770    15.1480 h1         1 R7Y       0.053700
     59 H24        -11.6260     5.7850    13.8700 h1         1 R7Y       0.061700
     60 H25        -11.6530    11.1360    16.2950 h1         1 R7Y       0.045700
     61 H26        -12.0440    12.3130    19.3450 hn         1 R7Y       0.318500
     62 H27         -5.0940    14.9900    17.7680 hn         1 R7Y       0.400000
     63 H28         -5.7970    13.5380    17.8200 hn         1 R7Y       0.400000
     64 H30         -8.8930    14.4260    16.1550 hn         1 R7Y       0.409500
     65 H31         -7.7020    13.4170    15.7360 hn         1 R7Y       0.409500
     66 H33        -10.6180     9.2030    12.6180 hn         1 R7Y       0.408000
     67 H34         -9.7770    10.4460    12.0240 hn         1 R7Y       0.408000
     68 H36        -15.0710     5.6090    14.7030 hn         1 R7Y       0.403000
     69 H37        -14.5410     6.2600    13.3280 hn         1 R7Y       0.403000
     70 H39         -9.4320    16.5260    21.0610 ho         1 R7Y       0.508000
     71 H40        -10.7470     4.4230    18.9130 ho         1 R7Y       0.502000
     72 H41        -14.0110     5.0620    17.6150 ho         1 R7Y       0.511000
     73 H42        -12.3880     6.8660    12.1820 ho         1 R7Y       0.509000
     74 H43        -11.1690    10.2770    18.2910 ho         1 R7Y       0.506000
@<TRIPOS>BOND
     1     1     2 1   
     2     1    36 1   
     3     1    37 1   
     4     1    38 1   
     5     2    21 1   
     6     2    26 2   
     7     3     4 1   
     8     3     8 1   
     9     3    21 1   
    10     3    39 1   
    11     4     5 1   
    12     4    40 1   
    13     4    41 1   
    14     5     6 1   
    15     5    27 1   
    16     5    42 1   
    17     6     7 1   
    18     6    28 1   
    19     6    43 1   
    20     7    22 1   
    21     7    44 1   
    22     7    45 1   
    23     8    28 1   
    24     8    29 1   
    25     8    46 1   
    26     9    10 1   
    27     9    20 1   
    28     9    29 1   
    29     9    47 1   
    30    10    11 1   
    31    10    23 1   
    32    10    48 1   
    33    11    12 1   
    34    11    49 1   
    35    11    50 1   
    36    12    13 1   
    37    12    24 1   
    38    12    51 1   
    39    13    20 1   
    40    13    30 1   
    41    13    52 1   
    42    14    19 1   
    43    14    30 1   
    44    14    31 1   
    45    14    53 1   
    46    15    16 1   
    47    15    17 1   
    48    15    31 1   
    49    15    54 1   
    50    16    32 1   
    51    16    55 1   
    52    16    56 1   
    53    17    18 1   
    54    17    33 1   
    55    17    57 1   
    56    18    19 1   
    57    18    25 1   
    58    18    58 1   
    59    19    34 1   
    60    19    59 1   
    61    20    35 1   
    62    20    60 1   
    63    21    61 1   
    64    22    62 1   
    65    22    63 1   
    66    23    64 1   
    67    23    65 1   
    68    24    66 1   
    69    24    67 1   
    70    25    68 1   
    71    25    69 1   
    72    27    70 1   
    73    32    71 1   
    74    33    72 1   
    75    34    73 1   
    76    35    74 1   
@<TRIPOS>SUBSTRUCTURE
     1 R7Y         1 TEMP              0 ****  ****    0 ROOT
