@<TRIPOS>MOLECULE
R7Y
   74    76     1     0     0
SMALL
No Charge or Current Charge


@<TRIPOS>ATOM
      1 C01        -14.0670    12.3460    20.1870 c3         1 R7Y      -0.183100
      2 C02        -12.5650    12.1100    20.1910 c          1 R7Y       0.600100
      3 C05        -10.3230    13.3110    20.3920 c6         1 R7Y       0.087700
      4 C06         -9.9050    14.8070    20.4390 c6         1 R7Y      -0.134400
      5 C07         -8.3690    14.9730    20.3940 c6         1 R7Y       0.145300
      6 C09         -7.8040    14.2090    19.1570 c6         1 R7Y       0.172300
      7 C10         -6.2430    14.2830    19.0650 c3         1 R7Y       0.160800
      8 C13         -9.5930    12.5410    19.2310 c6         1 R7Y       0.375300
      9 C15         -9.8780    11.9760    16.8360 c6         1 R7Y       0.101300
     10 C16        -10.0180    12.7710    15.4960 c6         1 R7Y       0.167500
     11 C18         -9.7020    11.8890    14.2670 c6         1 R7Y      -0.080400
     12 C19        -10.6360    10.6580    14.2260 c6         1 R7Y       0.150500
     13 C21        -10.5120     9.8200    15.5530 c6         1 R7Y       0.186300
     14 C23        -10.8310     7.4730    14.9060 c6         1 R7Y       0.387300
     15 C25        -11.4860     6.0290    16.7720 c6         1 R7Y       0.145300
     16 C26        -10.8420     5.1270    17.8770 c3         1 R7Y       0.161600
     17 C28        -12.5390     5.2650    15.8940 c6         1 R7Y       0.145300
     18 C30        -13.0490     6.2320    14.7790 c6         1 R7Y       0.137500
     19 C32        -11.8560     6.7730    13.9500 c6         1 R7Y       0.152300
     20 C34        -10.8190    10.7090    16.8090 c6         1 R7Y       0.149300
     21 N04        -11.8010    13.2450    20.3120 ns         1 R7Y      -0.511900
     22 N11         -5.6500    13.5250    17.9290 n8         1 R7Y      -1.002200
     23 N17         -9.1640    13.9810    15.4970 n8         1 R7Y      -0.994200
     24 N20        -10.3740     9.8760    12.9910 n8         1 R7Y      -1.009200
     25 N31        -14.0860     5.6330    13.8800 n8         1 R7Y      -1.004200
     26 O03        -12.0760    10.9970    20.0720 o          1 R7Y      -0.596100
     27 O08         -8.0430    16.3720    20.3480 oh         1 R7Y      -0.712000
     28 O12         -8.1720    12.8080    19.2350 os         1 R7Y      -0.478000
     29 O14        -10.1500    12.8860    17.9420 os         1 R7Y      -0.498000
     30 O22        -11.3850     8.6580    15.5260 os         1 R7Y      -0.474000
     31 O24        -10.4110     6.5530    15.9390 os         1 R7Y      -0.451000
     32 O27        -10.1100     4.0010    17.3500 oh         1 R7Y      -0.717000
     33 O29        -13.6510     4.7730    16.6790 oh         1 R7Y      -0.728000
     34 O33        -12.3900     7.6180    12.9110 oh         1 R7Y      -0.719000
     35 O35        -10.7210     9.9140    18.0130 oh         1 R7Y      -0.714000
     36 H1         -14.3450    12.8890    21.0970 hc         1 R7Y       0.063367
     37 H2         -14.3120    13.0680    19.4000 hc         1 R7Y       0.063367
     38 H3         -14.6390    11.4180    20.0770 hc         1 R7Y       0.063367
     39 H4         -10.0170    12.8360    21.3360 h1         1 R7Y       0.098700
     40 H5         -10.3090    15.2760    21.3460 hc         1 R7Y       0.060200
     41 H6         -10.3510    15.3360    19.5840 hc         1 R7Y       0.060200
     42 H7          -7.9400    14.5210    21.3010 h1         1 R7Y       0.041700
     43 H8          -8.2230    14.6430    18.2380 h1         1 R7Y       0.067700
     44 H9          -5.8260    13.8870    20.0010 h1         1 R7Y       0.043700
     45 H10         -5.9360    15.3350    18.9790 h1         1 R7Y       0.043700
     46 H11         -9.7280    11.4710    19.4250 h2         1 R7Y       0.089700
     47 H12         -8.8360    11.6330    16.9160 h1         1 R7Y       0.059700
     48 H13        -11.0620    13.1160    15.4150 h1         1 R7Y       0.063700
     49 H14         -8.6520    11.5640    14.2950 hc         1 R7Y       0.061200
     50 H15         -9.8260    12.4810    13.3500 hc         1 R7Y       0.061200
     51 H16        -11.6730    11.0170    14.1490 h1         1 R7Y       0.029700
     52 H17         -9.4720     9.4730    15.6510 h1         1 R7Y       0.069700
     53 H18         -9.9500     7.7420    14.3050 h2         1 R7Y       0.087700
     54 H19        -11.9830     6.8700    17.2780 h1         1 R7Y       0.065700
     55 H20        -10.1710     5.7620    18.4720 h1         1 R7Y       0.031700
     56 H21        -11.6340     4.7820    18.5530 h1         1 R7Y       0.031700
     57 H22        -12.0260     4.4220    15.4040 h1         1 R7Y       0.069700
     58 H23        -13.5300     7.0890    15.2770 h1         1 R7Y       0.053700
     59 H24        -11.3410     5.9160    13.4910 h1         1 R7Y       0.061700
     60 H25        -11.8530    11.0710    16.7040 h1         1 R7Y       0.045700
     61 H26        -12.3150    14.1160    20.3740 hn         1 R7Y       0.318500
     62 H27         -4.6330    13.4610    18.0630 hn         1 R7Y       0.400000
     63 H28         -5.9680    12.5510    18.0070 hn         1 R7Y       0.400000
     64 H30         -9.3450    14.4550    16.3890 hn         1 R7Y       0.409500
     65 H31         -8.1860    13.6880    15.5970 hn         1 R7Y       0.409500
     66 H33        -11.0940     9.1360    12.9280 hn         1 R7Y       0.408000
     67 H34        -10.5780    10.4650    12.1760 hn         1 R7Y       0.408000
     68 H36        -13.7240     4.7510    13.4980 hn         1 R7Y       0.403000
     69 H37        -14.8520     5.3090    14.4850 hn         1 R7Y       0.403000
     70 H39         -8.3860    16.7750    21.1790 ho         1 R7Y       0.508000
     71 H40         -9.6210     3.5970    18.1040 ho         1 R7Y       0.502000
     72 H41        -13.3650     3.9180    17.0780 ho         1 R7Y       0.511000
     73 H42        -13.2960     7.2320    12.7870 ho         1 R7Y       0.509000
     74 H43        -11.2830    10.3540    18.7090 ho         1 R7Y       0.506000
@<TRIPOS>BOND
     1     1     2 1   
     2     1    36 1   
     3     1    37 1   
     4     1    38 1   
     5     2    21 1   
     6     2    26 2   
     7     3     4 1   
     8     3     8 1   
     9     3    21 1   
    10     3    39 1   
    11     4     5 1   
    12     4    40 1   
    13     4    41 1   
    14     5     6 1   
    15     5    27 1   
    16     5    42 1   
    17     6     7 1   
    18     6    28 1   
    19     6    43 1   
    20     7    22 1   
    21     7    44 1   
    22     7    45 1   
    23     8    28 1   
    24     8    29 1   
    25     8    46 1   
    26     9    10 1   
    27     9    20 1   
    28     9    29 1   
    29     9    47 1   
    30    10    11 1   
    31    10    23 1   
    32    10    48 1   
    33    11    12 1   
    34    11    49 1   
    35    11    50 1   
    36    12    13 1   
    37    12    24 1   
    38    12    51 1   
    39    13    20 1   
    40    13    30 1   
    41    13    52 1   
    42    14    19 1   
    43    14    30 1   
    44    14    31 1   
    45    14    53 1   
    46    15    16 1   
    47    15    17 1   
    48    15    31 1   
    49    15    54 1   
    50    16    32 1   
    51    16    55 1   
    52    16    56 1   
    53    17    18 1   
    54    17    33 1   
    55    17    57 1   
    56    18    19 1   
    57    18    25 1   
    58    18    58 1   
    59    19    34 1   
    60    19    59 1   
    61    20    35 1   
    62    20    60 1   
    63    21    61 1   
    64    22    62 1   
    65    22    63 1   
    66    23    64 1   
    67    23    65 1   
    68    24    66 1   
    69    24    67 1   
    70    25    68 1   
    71    25    69 1   
    72    27    70 1   
    73    32    71 1   
    74    33    72 1   
    75    34    73 1   
    76    35    74 1   
@<TRIPOS>SUBSTRUCTURE
     1 R7Y         1 TEMP              0 ****  ****    0 ROOT
