@<TRIPOS>MOLECULE
R7Z
   50    52     1     0     0
SMALL
No Charge or Current Charge


@<TRIPOS>ATOM
      1 C10         39.7770     1.4710     4.9990 ca         1 R7Z      -0.122000
      2 C13         38.7650     3.7830     3.8670 ca         1 R7Z      -0.036000
      3 C15         37.5810     5.6870     4.5870 c          1 R7Z       0.563000
      4 C17         37.8300     4.7560     5.8110 c5         1 R7Z      -0.118100
      5 C22         37.6600    -0.4170    10.9890 ca         1 R7Z      -0.103300
      6 C24         37.8190    -1.9860    12.8700 ca         1 R7Z      -0.093000
      7 C26         36.8950     0.2280    13.2240 ca         1 R7Z       0.161000
      8 C28         37.0930     0.5560    11.8610 ca         1 R7Z      -0.096300
      9 C01         43.0530    -0.6950     9.7820 c3         1 R7Z      -0.090100
     10 C03         40.5010    -0.4240     9.5720 c3         1 R7Z      -0.087400
     11 C04         39.3060     0.5010     9.2100 c3         1 R7Z       0.123700
     12 N06         39.4070     0.9510     7.8140 ns         1 R7Z      -0.492900
     13 O08         38.3840     2.9480     8.0870 o          1 R7Z      -0.612100
     14 C09         39.0980     2.3980     5.8420 ca         1 R7Z      -0.098600
     15 C11         39.9380     1.7110     3.6140 ca         1 R7Z      -0.082000
     16 C12         39.4260     2.8830     3.0300 ca         1 R7Z      -0.130000
     17 N14         38.1720     4.9990     3.5510 ns         1 R7Z      -0.152000
     18 O16         37.0070     6.7670     4.5160 o          1 R7Z      -0.521000
     19 C18         38.5970     3.5690     5.2210 ca         1 R7Z      -0.089300
     20 C19         37.8980    -0.1180     9.4960 c3         1 R7Z       0.199600
     21 O21         37.6870    -1.2970     8.6980 oh         1 R7Z      -0.661000
     22 C23         38.0190    -1.6810    11.5160 ca         1 R7Z      -0.115000
     23 C25         37.2540    -1.0310    13.7240 ca         1 R7Z      -0.142000
     24 C29         36.6930     1.9440    11.3440 c3         1 R7Z      -0.057800
     25 H1          40.1950     0.5510     5.3990 ha         1 R7Z       0.120000
     26 H2          38.3850     5.3170     6.5690 hc         1 R7Z       0.104200
     27 H3          36.8650     4.4920     6.2530 hc         1 R7Z       0.104200
     28 H4          38.1030    -2.9630    13.2560 ha         1 R7Z       0.118000
     29 H5          44.0160    -0.2000     9.6040 hc         1 R7Z       0.033033
     30 H6          42.9810    -0.9310    10.8510 hc         1 R7Z       0.033033
     31 H7          43.0400    -1.6350     9.2170 hc         1 R7Z       0.033033
     32 H8          42.0210     0.4670     8.2860 hc         1 R7Z       0.039700
     33 H9          41.9510     1.1620     9.9050 hc         1 R7Z       0.039700
     34 H10         40.4250    -0.7060    10.6290 hc         1 R7Z       0.056200
     35 H11         40.4350    -1.3520     8.9910 hc         1 R7Z       0.056200
     36 H12         39.3970     1.3890     9.8480 h1         1 R7Z       0.084700
     37 H13         39.8030     0.3140     7.1380 hn         1 R7Z       0.325500
     38 H14         40.4610     0.9850     2.9960 ha         1 R7Z       0.119000
     39 H15         39.5430     3.0800     1.9660 ha         1 R7Z       0.124000
     40 H16         38.1730     5.3600     2.6060 hn         1 R7Z       0.172000
     41 H17         37.1580     0.6290     9.1810 h1         1 R7Z       0.054700
     42 H18         36.7980    -1.6380     8.9350 ho         1 R7Z       0.450000
     43 H19         38.4660    -2.4370    10.8740 ha         1 R7Z       0.126000
     44 H20         37.0950    -1.2620    14.7740 ha         1 R7Z       0.133000
     45 H21         36.3990     2.6280    12.1470 hc         1 R7Z       0.056700
     46 H22         37.5210     2.4270    10.8140 hc         1 R7Z       0.056700
     47 H23         35.8440     1.8750    10.6540 hc         1 R7Z       0.056700
     48 C07         38.9210     2.1470     7.3340 c          1 R7Z       0.611700
     49 F27         36.3500     1.1260    14.0780 f          1 R7Z      -0.181000
     50 C02         41.8910     0.2190     9.3460 c3         1 R7Z      -0.075400
@<TRIPOS>BOND
     1     1    14 ar  
     2     1    15 ar  
     3     1    25 1   
     4     2    16 ar  
     5     2    17 1   
     6     2    19 ar  
     7     3     4 1   
     8     3    17 1   
     9     3    18 2   
    10     4    19 1   
    11     4    26 1   
    12     4    27 1   
    13     5     8 ar  
    14     5    20 1   
    15     5    22 ar  
    16     6    22 ar  
    17     6    23 ar  
    18     6    28 1   
    19     7     8 ar  
    20     7    23 ar  
    21     7    49 1   
    22     8    24 1   
    23     9    29 1   
    24     9    30 1   
    25     9    31 1   
    26     9    50 1   
    27    10    11 1   
    28    10    34 1   
    29    10    35 1   
    30    10    50 1   
    31    11    12 1   
    32    11    20 1   
    33    11    36 1   
    34    12    37 1   
    35    12    48 1   
    36    13    48 2   
    37    14    19 ar  
    38    14    48 1   
    39    15    16 ar  
    40    15    38 1   
    41    16    39 1   
    42    17    40 1   
    43    20    21 1   
    44    20    41 1   
    45    21    42 1   
    46    22    43 1   
    47    23    44 1   
    48    24    45 1   
    49    24    46 1   
    50    24    47 1   
    51    32    50 1   
    52    33    50 1   
@<TRIPOS>SUBSTRUCTURE
     1 R7Z         1 TEMP              0 ****  ****    0 ROOT
