@<TRIPOS>MOLECULE
R7Z
   50    52     1     0     0
SMALL
abcg2


@<TRIPOS>ATOM
      1 C10         40.4440     2.0400     5.2840 ca         1 R7Z      -0.122000
      2 C13         38.7130     3.7390     3.9930 ca         1 R7Z      -0.036000
      3 C15         36.7890     4.8550     4.5190 c          1 R7Z       0.563000
      4 C17         37.2540     4.1380     5.7770 c5         1 R7Z      -0.118100
      5 C22         37.6240    -0.2690    10.9050 ca         1 R7Z      -0.103300
      6 C24         37.4390    -1.8750    12.7090 ca         1 R7Z      -0.093000
      7 C26         37.2430     0.4440    13.1450 ca         1 R7Z       0.161000
      8 C28         37.4230     0.7840    11.8100 ca         1 R7Z      -0.096300
      9 C01         42.8140    -1.0650     9.6930 c3         1 R7Z      -0.090100
     10 C03         40.3520    -0.5610     9.4280 c3         1 R7Z      -0.087400
     11 C04         39.2840     0.4970     9.1600 c3         1 R7Z       0.123700
     12 N06         39.4080     0.9810     7.7990 ns         1 R7Z      -0.492900
     13 O08         38.6930     3.0890     8.1990 o          1 R7Z      -0.612100
     14 C09         39.3500     2.5570     5.9870 ca         1 R7Z      -0.098600
     15 C11         40.6580     2.3850     3.9580 ca         1 R7Z      -0.082000
     16 C12         39.7890     3.2380     3.2850 ca         1 R7Z      -0.130000
     17 N14         37.7080     4.5840     3.5470 ns         1 R7Z      -0.152000
     18 O16         35.8010     5.5440     4.3870 o          1 R7Z      -0.521000
     19 C18         38.4920     3.4250     5.3340 ca         1 R7Z      -0.089300
     20 C19         37.8480     0.0080     9.4290 c3         1 R7Z       0.199600
     21 O21         37.6320    -1.1190     8.6210 oh         1 R7Z      -0.661000
     22 C23         37.6240    -1.5840    11.3670 ca         1 R7Z      -0.115000
     23 C25         37.2440    -0.8490    13.6210 ca         1 R7Z      -0.142000
     24 C29         37.3940     2.2390    11.4330 c3         1 R7Z      -0.057800
     25 H1          41.1530     1.3870     5.7780 ha         1 R7Z       0.120000
     26 H2          37.4390     4.8680     6.5660 hc         1 R7Z       0.104200
     27 H3          36.4710     3.4700     6.1450 hc         1 R7Z       0.104200
     28 H4          37.4440    -2.9020    13.0480 ha         1 R7Z       0.118000
     29 H5          43.8250    -0.6630     9.6230 hc         1 R7Z       0.033033
     30 H6          42.6730    -1.4300    10.7110 hc         1 R7Z       0.033033
     31 H7          42.7550    -1.9260     9.0240 hc         1 R7Z       0.033033
     32 H8          41.9660     0.3570     8.3230 hc         1 R7Z       0.039700
     33 H9          41.8740     0.8460    10.0000 hc         1 R7Z       0.039700
     34 H10         40.1930    -0.9640    10.4310 hc         1 R7Z       0.056200
     35 H11         40.2350    -1.4020     8.7380 hc         1 R7Z       0.056200
     36 H12         39.4720     1.3430     9.8260 h1         1 R7Z       0.084700
     37 H13         39.6270     0.3040     7.0850 hn         1 R7Z       0.325500
     38 H14         41.5180     1.9850     3.4360 ha         1 R7Z       0.119000
     39 H15         39.9530     3.4990     2.2480 ha         1 R7Z       0.124000
     40 H16         37.6400     4.9390     2.6050 hn         1 R7Z       0.172000
     41 H17         37.1710     0.8170     9.1260 h1         1 R7Z       0.054700
     42 H18         36.6920    -1.3240     8.6210 ho         1 R7Z       0.450000
     43 H19         37.7750    -2.3950    10.6680 ha         1 R7Z       0.126000
     44 H20         37.0960    -1.0460    14.6750 ha         1 R7Z       0.133000
     45 H21         36.5060     2.7310    11.8310 hc         1 R7Z       0.056700
     46 H22         38.2610     2.7660    11.8340 hc         1 R7Z       0.056700
     47 H23         37.3980     2.3960    10.3590 hc         1 R7Z       0.056700
     48 C07         39.1170     2.2370     7.4280 c          1 R7Z       0.611700
     49 F27         37.0540     1.4460    14.0240 f          1 R7Z      -0.181000
     50 C02         41.7730    -0.0150     9.3330 c3         1 R7Z      -0.075400
@<TRIPOS>BOND
     1     1    14 ar  
     2     1    15 ar  
     3     1    25 1   
     4     2    16 ar  
     5     2    17 1   
     6     2    19 ar  
     7     3     4 1   
     8     3    17 1   
     9     3    18 2   
    10     4    19 1   
    11     4    26 1   
    12     4    27 1   
    13     5     8 ar  
    14     5    20 1   
    15     5    22 ar  
    16     6    22 ar  
    17     6    23 ar  
    18     6    28 1   
    19     7     8 ar  
    20     7    23 ar  
    21     7    49 1   
    22     8    24 1   
    23     9    29 1   
    24     9    30 1   
    25     9    31 1   
    26     9    50 1   
    27    10    11 1   
    28    10    34 1   
    29    10    35 1   
    30    10    50 1   
    31    11    12 1   
    32    11    20 1   
    33    11    36 1   
    34    12    37 1   
    35    12    48 1   
    36    13    48 2   
    37    14    19 ar  
    38    14    48 1   
    39    15    16 ar  
    40    15    38 1   
    41    16    39 1   
    42    17    40 1   
    43    20    21 1   
    44    20    41 1   
    45    21    42 1   
    46    22    43 1   
    47    23    44 1   
    48    24    45 1   
    49    24    46 1   
    50    24    47 1   
    51    32    50 1   
    52    33    50 1   
@<TRIPOS>SUBSTRUCTURE
     1 R7Z         1 TEMP              0 ****  ****    0 ROOT
