@<TRIPOS>MOLECULE
R80
   31    32     1     0     0
SMALL
abcg2


@<TRIPOS>ATOM
      1 N1           5.0500     6.2950    18.4420 n3         1 R80      -0.765500
      2 C2           4.3730     7.4790    19.0140 c3         1 R80       0.248100
      3 S3           4.4090     5.6620    17.0900 s6         1 R80       1.339900
      4 C4           6.5480     6.3640    18.4480 c6         1 R80       0.219500
      5 C5           4.6050     7.5440    20.5020 ca         1 R80      -0.087300
      6 N6           5.0490     6.6560    15.9010 ns         1 R80      -0.615300
      7 O7           4.9570     4.3480    16.9140 o          1 R80      -0.545500
      8 O8           2.9890     5.8530    17.0550 o          1 R80      -0.545500
      9 C9           7.1810     6.3980    17.0320 c6         1 R80      -0.214400
     10 C10          7.1460     5.2470    19.2870 c3         1 R80      -0.092100
     11 C11          5.2200     8.6530    21.0660 ca         1 R80      -0.092000
     12 C12          4.1980     6.4980    21.3290 ca         1 R80      -0.073000
     13 C13          6.3640     7.0690    15.9530 c          1 R80       0.578000
     14 C14          5.4240     8.7260    22.4410 ca         1 R80       0.120000
     15 C15          4.4010     6.5620    22.6970 ca         1 R80      -0.098000
     16 O16          6.8030     7.8800    15.1600 o          1 R80      -0.501000
     17 C17          5.0160     7.6780    23.2600 ca         1 R80       0.129000
     18 CL18         6.1990    10.1370    23.0990 cl         1 R80      -0.173000
     19 CL19         5.2580     7.7270    24.9800 cl         1 R80      -0.171000
     20 H20          4.7330     8.3920    18.5330 h1         1 R80       0.071200
     21 H21          3.3100     7.3810    18.8120 h1         1 R80       0.071200
     22 H1           6.7680     7.3210    18.9170 h1         1 R80       0.064700
     23 H22          4.4150     7.0720    15.2290 hn         1 R80       0.352500
     24 H2           8.1410     6.9040    17.0890 hc         1 R80       0.102700
     25 H23          7.3620     5.3740    16.6940 hc         1 R80       0.102700
     26 H25          8.2320     5.3530    19.3230 hc         1 R80       0.056700
     27 H26          6.7580     5.2870    20.3050 hc         1 R80       0.056700
     28 H24          6.9050     4.2750    18.8550 hc         1 R80       0.056700
     29 H27          5.5500     9.4720    20.4400 ha         1 R80       0.131000
     30 H28          3.7260     5.6230    20.9000 ha         1 R80       0.133000
     31 H29          4.0860     5.7530    23.3400 ha         1 R80       0.138000
@<TRIPOS>BOND
     1     1     2 1   
     2     1     3 1   
     3     1     4 1   
     4     2     5 1   
     5     2    20 1   
     6     2    21 1   
     7     3     6 1   
     8     3     7 2   
     9     3     8 2   
    10     4     9 1   
    11     4    10 1   
    12     4    22 1   
    13     5    11 ar  
    14     5    12 ar  
    15     6    13 1   
    16     6    23 1   
    17     9    13 1   
    18     9    24 1   
    19     9    25 1   
    20    10    26 1   
    21    10    27 1   
    22    10    28 1   
    23    11    14 ar  
    24    11    29 1   
    25    12    15 ar  
    26    12    30 1   
    27    13    16 2   
    28    14    17 ar  
    29    14    18 1   
    30    15    17 ar  
    31    15    31 1   
    32    17    19 1   
@<TRIPOS>SUBSTRUCTURE
     1 R80         1 TEMP              0 ****  ****    0 ROOT
