@<TRIPOS>MOLECULE
R80
   31    32     1     0     0
SMALL
No Charge or Current Charge


@<TRIPOS>ATOM
      1 N1           5.0780     6.7780    18.2100 n3         1 R80      -0.765500
      2 C2           4.3640     7.6700    19.1600 c3         1 R80       0.248100
      3 S3           4.1600     6.5200    16.7860 s6         1 R80       1.339900
      4 C4           6.5130     7.0750    17.9850 c6         1 R80       0.219500
      5 C5           4.5940     7.3170    20.6280 ca         1 R80      -0.087300
      6 N6           5.2490     5.8610    15.7290 ns         1 R80      -0.615300
      7 O7           3.1690     5.4830    17.0760 o          1 R80      -0.545500
      8 O8           3.7640     7.8250    16.2540 o          1 R80      -0.545500
      9 C9           7.1530     5.8680    17.2870 c6         1 R80      -0.214400
     10 C10          7.3330     7.3860    19.2690 c3         1 R80      -0.092100
     11 C11          4.8410     8.3300    21.5770 ca         1 R80      -0.092000
     12 C12          4.5490     5.9720    21.0510 ca         1 R80      -0.073000
     13 C13          6.5410     5.5460    15.9390 c          1 R80       0.578000
     14 C14          5.0550     8.0040    22.9280 ca         1 R80       0.120000
     15 C15          4.7620     5.6440    22.4010 ca         1 R80      -0.098000
     16 O16          7.2080     5.0680    15.0370 o          1 R80      -0.501000
     17 C17          5.0170     6.6560    23.3410 ca         1 R80       0.129000
     18 Cl18         5.3690     9.3020    24.0800 cl         1 R80      -0.173000
     19 Cl19         5.2820     6.2120    25.0280 cl         1 R80      -0.171000
     20 H20          4.6350     8.7190    18.9760 h1         1 R80       0.071200
     21 H21          3.2770     7.6060    19.0100 h1         1 R80       0.071200
     22 H1           6.6140     7.9540    17.3280 h1         1 R80       0.064700
     23 H22          4.8340     5.6680    14.8350 hn         1 R80       0.352500
     24 H2           8.2410     5.9550    17.1750 hc         1 R80       0.102700
     25 H23          6.9610     4.9930    17.9200 hc         1 R80       0.102700
     26 H25          8.3980     7.5000    19.0370 hc         1 R80       0.056700
     27 H26          7.0170     8.3260    19.7340 hc         1 R80       0.056700
     28 H24          7.2420     6.5840    20.0100 hc         1 R80       0.056700
     29 H27          4.8720     9.3720    21.2690 ha         1 R80       0.131000
     30 H28          4.3560     5.1810    20.3290 ha         1 R80       0.133000
     31 H29          4.7310     4.6050    22.7190 ha         1 R80       0.138000
@<TRIPOS>BOND
     1     1     2 1   
     2     1     3 1   
     3     1     4 1   
     4     2     5 1   
     5     2    20 1   
     6     2    21 1   
     7     3     6 1   
     8     3     7 2   
     9     3     8 2   
    10     4     9 1   
    11     4    10 1   
    12     4    22 1   
    13     5    11 ar  
    14     5    12 ar  
    15     6    13 1   
    16     6    23 1   
    17     9    13 1   
    18     9    24 1   
    19     9    25 1   
    20    10    26 1   
    21    10    27 1   
    22    10    28 1   
    23    11    14 ar  
    24    11    29 1   
    25    12    15 ar  
    26    12    30 1   
    27    13    16 2   
    28    14    17 ar  
    29    14    18 1   
    30    15    17 ar  
    31    15    31 1   
    32    17    19 1   
@<TRIPOS>SUBSTRUCTURE
     1 R80         1 TEMP              0 ****  ****    0 ROOT
