@<TRIPOS>MOLECULE
R81
   78    81     1     0     0
SMALL
bcc


@<TRIPOS>ATOM
      1 C14         34.5310   -42.6280    -7.0520 c3         1 R81       0.159800
      2 C7          29.8010   -47.3680    -2.9350 c          1 R81       0.579100
      3 N4          23.6510   -41.6530     3.3300 nb         1 R81      -0.682000
      4 C2          27.1100   -49.3850    -0.1170 ca         1 R81      -0.116500
      5 C5          26.8300   -46.7470    -1.0130 ca         1 R81      -0.091800
      6 C6          26.7000   -45.3490    -1.5440 c3         1 R81      -0.052300
      7 N1          30.7830   -45.1620    -3.0370 nb         1 R81      -0.682000
      8 C19         23.2040   -44.9690     1.0940 ca         1 R81       0.061600
      9 C15         34.5670   -42.6650    -8.5630 c3         1 R81       0.138400
     10 C13         33.4880   -43.5400    -5.0780 c3         1 R81       0.207100
     11 C11         32.5300   -44.5760    -4.5630 ca         1 R81      -0.185600
     12 C16         24.5230   -46.6650     0.0010 cp         1 R81      -0.021500
     13 O           29.7220   -48.5160    -3.3360 o          1 R81      -0.586600
     14 C8          30.7800   -46.3960    -3.5260 ca         1 R81       0.348300
     15 C9          31.6260   -46.7980    -4.5500 ca         1 R81      -0.188300
     16 C10         32.5090   -45.8690    -5.0740 ca         1 R81      -0.091500
     17 N2          33.5380   -43.5440    -6.5250 n7         1 R81      -0.802200
     18 O1          33.3340   -42.1880    -9.0600 oh         1 R81      -0.593800
     19 C12         31.6310   -44.2810    -3.5420 ca         1 R81       0.416200
     20 N           29.0440   -46.8350    -1.9530 ns         1 R81      -0.466100
     21 C4          28.0040   -47.4740    -1.2600 ca         1 R81       0.061600
     22 C3          28.1450   -48.7830    -0.8110 ca         1 R81      -0.130500
     23 C1          25.9470   -48.6790     0.1450 ca         1 R81      -0.132000
     24 C           25.8050   -47.3620    -0.2850 cp         1 R81      -0.021500
     25 C17         24.4490   -45.5860     0.8890 ca         1 R81      -0.091800
     26 C31         23.3710   -47.1350    -0.6250 ca         1 R81      -0.132000
     27 C30         22.1500   -46.5230    -0.4010 ca         1 R81      -0.116500
     28 C29         22.0620   -45.4330     0.4480 ca         1 R81      -0.130500
     29 C20         22.1510   -43.4580     2.7390 c          1 R81       0.579100
     30 O2          21.0870   -44.0390     2.8670 o          1 R81      -0.586600
     31 C21         22.4490   -42.1970     3.4950 ca         1 R81       0.348300
     32 C22         21.4850   -41.6420     4.3200 ca         1 R81      -0.188300
     33 C23         21.7920   -40.4640     4.9840 ca         1 R81      -0.091500
     34 C24         23.0380   -39.8780     4.8100 ca         1 R81      -0.185600
     35 C25         23.9390   -40.5330     3.9690 ca         1 R81       0.416200
     36 C26         23.3960   -38.5730     5.4650 c3         1 R81       0.207100
     37 N5          24.7630   -38.5650     5.9350 n7         1 R81      -0.802200
     38 C27         25.1790   -37.2620     6.4150 c3         1 R81       0.159800
     39 C28         26.5890   -37.2750     6.9620 c3         1 R81       0.138400
     40 O3          27.5000   -37.6100     5.9400 oh         1 R81      -0.593800
     41 H1          35.5150   -42.9330    -6.6860 h1         1 R81       0.037450
     42 H2          34.3820   -41.5900    -6.7140 h1         1 R81       0.037450
     43 H3          27.2190   -50.4030     0.2340 ha         1 R81       0.134000
     44 H4          27.0250   -45.2870    -2.5830 hc         1 R81       0.046033
     45 H5          25.6720   -44.9960    -1.5020 hc         1 R81       0.046033
     46 H6          27.3050   -44.6380    -0.9750 hc         1 R81       0.046033
     47 H7          23.9910   -43.2710     1.9980 hn         1 R81       0.350500
     48 H8          34.7620   -43.6940    -8.8890 h1         1 R81       0.022700
     49 H9          35.4070   -42.0500    -8.9090 h1         1 R81       0.022700
     50 H10         34.4900   -43.7760    -4.7050 h1         1 R81       0.040450
     51 H11         33.2290   -42.5600    -4.6500 h1         1 R81       0.040450
     52 H12         25.9960   -44.1180     1.2480 hc         1 R81       0.046033
     53 H13         25.4440   -44.9570     2.6930 hc         1 R81       0.046033
     54 H14         26.4930   -45.7730     1.5500 hc         1 R81       0.046033
     55 H15         31.5950   -47.8100    -4.9270 ha         1 R81       0.167500
     56 H16         33.1770   -46.1440    -5.8790 ha         1 R81       0.148500
     57 H17         32.6270   -43.2870    -6.8860 hn         1 R81       0.365300
     58 H19         33.3190   -42.3210   -10.0120 ho         1 R81       0.404000
     59 H20         31.5980   -43.2820    -3.1200 h4         1 R81       0.032600
     60 H21         29.2040   -45.8500    -1.7810 hn         1 R81       0.350500
     61 H22         29.0620   -49.3260    -0.9880 ha         1 R81       0.152500
     62 H23         25.1440   -49.1470     0.6990 ha         1 R81       0.137000
     63 H24         23.4410   -47.9740    -1.3060 ha         1 R81       0.137000
     64 H25         21.2620   -46.8830    -0.9040 ha         1 R81       0.134000
     65 H26         21.1110   -44.9430     0.5910 ha         1 R81       0.152500
     66 H27         20.5190   -42.1120     4.4410 ha         1 R81       0.167500
     67 H28         21.0610   -40.0020     5.6370 ha         1 R81       0.148500
     68 H29         24.9310   -40.1250     3.8180 h4         1 R81       0.032600
     69 H30         23.2900   -37.7780     4.7190 h1         1 R81       0.040450
     70 H31         22.6570   -38.3480     6.2480 h1         1 R81       0.040450
     71 H32         24.8590   -39.2430     6.6820 hn         1 R81       0.365300
     72 H34         25.1140   -36.5500     5.5870 h1         1 R81       0.037450
     73 H35         24.5260   -36.8700     7.2100 h1         1 R81       0.037450
     74 H36         26.7950   -36.2810     7.3800 h1         1 R81       0.022700
     75 H37         26.6450   -37.9840     7.8000 h1         1 R81       0.022700
     76 H38         28.3850   -37.5830     6.3130 ho         1 R81       0.404000
     77 C18         25.6560   -45.0850     1.6300 c3         1 R81      -0.052300
     78 N3          23.1630   -43.8490     1.9360 ns         1 R81      -0.466100
@<TRIPOS>BOND
     1     1     9 1   
     2     1    17 1   
     3     1    41 1   
     4     1    42 1   
     5     2    13 2   
     6     2    14 1   
     7     2    20 1   
     8     3    31 ar  
     9     3    35 ar  
    10     4    22 ar  
    11     4    23 ar  
    12     4    43 1   
    13     5     6 1   
    14     5    21 ar  
    15     5    24 ar  
    16     6    44 1   
    17     6    45 1   
    18     6    46 1   
    19     7    14 ar  
    20     7    19 ar  
    21     8    25 ar  
    22     8    28 ar  
    23     8    78 1   
    24     9    18 1   
    25     9    48 1   
    26     9    49 1   
    27    10    11 1   
    28    10    17 1   
    29    10    50 1   
    30    10    51 1   
    31    11    16 ar  
    32    11    19 ar  
    33    12    24 1   
    34    12    25 ar  
    35    12    26 ar  
    36    14    15 ar  
    37    15    16 ar  
    38    15    55 1   
    39    16    56 1   
    40    17    57 1   
    41    18    58 1   
    42    19    59 1   
    43    20    21 1   
    44    20    60 1   
    45    21    22 ar  
    46    22    61 1   
    47    23    24 ar  
    48    23    62 1   
    49    25    77 1   
    50    26    27 ar  
    51    26    63 1   
    52    27    28 ar  
    53    27    64 1   
    54    28    65 1   
    55    29    30 2   
    56    29    31 1   
    57    29    78 1   
    58    31    32 ar  
    59    32    33 ar  
    60    32    66 1   
    61    33    34 ar  
    62    33    67 1   
    63    34    35 ar  
    64    34    36 1   
    65    35    68 1   
    66    36    37 1   
    67    36    69 1   
    68    36    70 1   
    69    37    38 1   
    70    37    71 1   
    71    38    39 1   
    72    38    72 1   
    73    38    73 1   
    74    39    40 1   
    75    39    74 1   
    76    39    75 1   
    77    40    76 1   
    78    47    78 1   
    79    52    77 1   
    80    53    77 1   
    81    54    77 1   
@<TRIPOS>SUBSTRUCTURE
     1 R81         1 TEMP              0 ****  ****    0 ROOT
