@<TRIPOS>MOLECULE
R81
   78    81     1     0     0
SMALL
No Charge or Current Charge


@<TRIPOS>ATOM
      1 C14         34.1740   -42.8680    -8.0100 c3         1 R81       0.159800
      2 C7          30.3830   -47.4430    -2.6700 c          1 R81       0.512100
      3 N4          24.0530   -41.3850     3.2390 nb         1 R81      -0.682000
      4 C2          27.3780   -49.3000     0.1730 ca         1 R81      -0.098500
      5 C5          26.9870   -46.8070    -1.0960 ca         1 R81      -0.091800
      6 C6          26.7890   -45.4650    -1.8130 c3         1 R81      -0.052300
      7 N1          30.6990   -45.1360    -3.5890 nb         1 R81      -0.682000
      8 C19         23.3520   -44.8230     1.0220 ca         1 R81      -0.031000
      9 C15         34.0420   -43.2400    -9.5130 c3         1 R81       0.161600
     10 C13         33.3830   -43.4810    -5.7230 c3         1 R81       0.207100
     11 C11         32.6270   -44.5440    -4.9450 ca         1 R81      -0.120300
     12 C16         24.6830   -46.6320     0.0060 cp         1 R81      -0.021500
     13 O           30.7520   -48.6100    -2.5410 o          1 R81      -0.586600
     14 C8          31.1790   -46.4130    -3.4760 ca         1 R81       0.283000
     15 C9          32.3940   -46.7930    -4.0900 ca         1 R81      -0.105000
     16 C10         33.1290   -45.8530    -4.8300 ca         1 R81      -0.073500
     17 N2          33.4710   -43.8450    -7.1470 n7         1 R81      -0.857400
     18 O1          32.6580   -43.3090    -9.9050 oh         1 R81      -0.656000
     19 C12         31.4120   -44.2340    -4.3060 ca         1 R81       0.350900
     20 N           29.2070   -46.9440    -2.1170 ns         1 R81      -0.140000
     21 C4          28.1990   -47.5220    -1.2890 ca         1 R81      -0.031000
     22 C3          28.3840   -48.7640    -0.6420 ca         1 R81      -0.112500
     23 C1          26.1840   -48.5970     0.3640 ca         1 R81      -0.114000
     24 C           25.9710   -47.3440    -0.2510 cp         1 R81      -0.021500
     25 C17         24.6020   -45.4690     0.8280 ca         1 R81      -0.091800
     26 C31         23.5040   -47.1370    -0.5840 ca         1 R81      -0.114000
     27 C30         22.2720   -46.5000    -0.3920 ca         1 R81      -0.098500
     28 C29         22.1960   -45.3470     0.4000 ca         1 R81      -0.112500
     29 C20         22.2640   -42.9090     2.3760 c          1 R81       0.512100
     30 O2          21.0800   -43.2250     2.2690 o          1 R81      -0.586600
     31 C21         22.7170   -41.6670     3.1490 ca         1 R81       0.283000
     32 C22         21.7520   -40.8320     3.7570 ca         1 R81      -0.105000
     33 C23         22.1600   -39.6910     4.4670 ca         1 R81      -0.073500
     34 C24         23.5340   -39.4100     4.5550 ca         1 R81      -0.120300
     35 C25         24.4400   -40.2830     3.9280 ca         1 R81       0.350900
     36 C26         24.0410   -38.1900     5.3010 c3         1 R81       0.207100
     37 N5          24.3340   -38.5350     6.7010 n7         1 R81      -0.857400
     38 C27         24.8370   -37.4150     7.5380 c3         1 R81       0.159800
     39 C28         25.0860   -37.8310     9.0180 c3         1 R81       0.161600
     40 O3          26.1440   -38.8010     9.1300 oh         1 R81      -0.656000
     41 H1          35.2400   -42.8210    -7.7460 h1         1 R81       0.037450
     42 H2          33.7560   -41.8610    -7.8680 h1         1 R81       0.037450
     43 H3          27.5300   -50.2590     0.6650 ha         1 R81       0.116000
     44 H4          27.0460   -45.5380    -2.8770 hc         1 R81       0.046033
     45 H5          25.7530   -45.1090    -1.7750 hc         1 R81       0.046033
     46 H6          27.4190   -44.6870    -1.3670 hc         1 R81       0.046033
     47 H7          24.2210   -43.2580     2.0350 hn         1 R81       0.184000
     48 H8          34.5340   -44.2070    -9.6860 h1         1 R81       0.022700
     49 H9          34.5690   -42.4860   -10.1120 h1         1 R81       0.022700
     50 H10         34.3880   -43.3770    -5.2920 h1         1 R81       0.040450
     51 H11         32.8750   -42.5130    -5.6070 h1         1 R81       0.040450
     52 H12         26.1640   -43.9630     1.0470 hc         1 R81       0.046033
     53 H13         25.6630   -44.7000     2.5790 hc         1 R81       0.046033
     54 H14         26.7040   -45.5860     1.4840 hc         1 R81       0.046033
     55 H15         32.7630   -47.8110    -3.9900 ha         1 R81       0.149500
     56 H16         34.0660   -46.1330    -5.3080 ha         1 R81       0.130500
     57 H17         32.5160   -43.9290    -7.5190 hn         1 R81       0.420500
     58 H19         32.6440   -43.5750   -10.8510 ho         1 R81       0.443000
     59 H20         30.9920   -43.2300    -4.3680 h4         1 R81       0.032600
     60 H21         29.0420   -45.9720    -2.3470 hn         1 R81       0.184000
     61 H22         29.3050   -49.3260    -0.7500 ha         1 R81       0.134500
     62 H23         25.4120   -49.0170     1.0060 ha         1 R81       0.119000
     63 H24         23.5550   -48.0270    -1.2070 ha         1 R81       0.119000
     64 H25         21.3760   -46.8960    -0.8650 ha         1 R81       0.116000
     65 H26         21.2290   -44.8680     0.5090 ha         1 R81       0.134500
     66 H27         20.6940   -41.0690     3.6760 ha         1 R81       0.149500
     67 H28         21.4240   -39.0400     4.9370 ha         1 R81       0.130500
     68 H29         25.5130   -40.0980     3.9750 h4         1 R81       0.032600
     69 H30         24.9440   -37.8110     4.8010 h1         1 R81       0.040450
     70 H31         23.2820   -37.3960     5.2500 h1         1 R81       0.040450
     71 H32         23.4710   -38.8940     7.1270 hn         1 R81       0.420500
     72 H34         25.7720   -37.0160     7.1220 h1         1 R81       0.037450
     73 H35         24.1070   -36.5930     7.5370 h1         1 R81       0.037450
     74 H36         25.3450   -36.9320     9.5930 h1         1 R81       0.022700
     75 H37         24.1540   -38.2320     9.4390 h1         1 R81       0.022700
     76 H38         26.1970   -39.0570    10.0770 ho         1 R81       0.443000
     77 C18         25.8500   -44.9020     1.5180 c3         1 R81      -0.052300
     78 N3          23.3090   -43.6450     1.8250 ns         1 R81      -0.140000
@<TRIPOS>BOND
     1     1     9 1   
     2     1    17 1   
     3     1    41 1   
     4     1    42 1   
     5     2    13 2   
     6     2    14 1   
     7     2    20 1   
     8     3    31 ar  
     9     3    35 ar  
    10     4    22 ar  
    11     4    23 ar  
    12     4    43 1   
    13     5     6 1   
    14     5    21 ar  
    15     5    24 ar  
    16     6    44 1   
    17     6    45 1   
    18     6    46 1   
    19     7    14 ar  
    20     7    19 ar  
    21     8    25 ar  
    22     8    28 ar  
    23     8    78 1   
    24     9    18 1   
    25     9    48 1   
    26     9    49 1   
    27    10    11 1   
    28    10    17 1   
    29    10    50 1   
    30    10    51 1   
    31    11    16 ar  
    32    11    19 ar  
    33    12    24 1   
    34    12    25 ar  
    35    12    26 ar  
    36    14    15 ar  
    37    15    16 ar  
    38    15    55 1   
    39    16    56 1   
    40    17    57 1   
    41    18    58 1   
    42    19    59 1   
    43    20    21 1   
    44    20    60 1   
    45    21    22 ar  
    46    22    61 1   
    47    23    24 ar  
    48    23    62 1   
    49    25    77 1   
    50    26    27 ar  
    51    26    63 1   
    52    27    28 ar  
    53    27    64 1   
    54    28    65 1   
    55    29    30 2   
    56    29    31 1   
    57    29    78 1   
    58    31    32 ar  
    59    32    33 ar  
    60    32    66 1   
    61    33    34 ar  
    62    33    67 1   
    63    34    35 ar  
    64    34    36 1   
    65    35    68 1   
    66    36    37 1   
    67    36    69 1   
    68    36    70 1   
    69    37    38 1   
    70    37    71 1   
    71    38    39 1   
    72    38    72 1   
    73    38    73 1   
    74    39    40 1   
    75    39    74 1   
    76    39    75 1   
    77    40    76 1   
    78    47    78 1   
    79    52    77 1   
    80    53    77 1   
    81    54    77 1   
@<TRIPOS>SUBSTRUCTURE
     1 R81         1 TEMP              0 ****  ****    0 ROOT
