@<TRIPOS>MOLECULE
R82
   49    51     1     0     0
SMALL
abcg2


@<TRIPOS>ATOM
      1 C1           3.3520     3.3770     1.4420 c3         1 R82       0.147900
      2 O2           3.5310     2.0090     1.1120 os         1 R82      -0.339100
      3 C3           2.5310     1.3370     0.5430 ca         1 R82       0.212100
      4 C4           1.3030     1.9070     0.2170 ca         1 R82      -0.308000
      5 C5           0.3180     1.1380    -0.3890 ca         1 R82       0.269100
      6 O6          -0.8780     1.6010    -0.7420 os         1 R82      -0.337100
      7 C7          -1.2940     2.8860    -0.3130 c3         1 R82       0.154900
      8 C8           0.5610    -0.2170    -0.6420 ca         1 R82      -0.375500
      9 C9           1.7800    -0.7850    -0.2930 ca         1 R82       0.064000
     10 C10          2.7730    -0.0240     0.2900 ca         1 R82      -0.135000
     11 N11          4.0160    -0.5800     0.6410 ns         1 R82      -0.154000
     12 C12          4.8420    -1.2010    -0.2370 c          1 R82       0.604100
     13 O13          4.5450    -1.3910    -1.4030 o          1 R82      -0.580100
     14 C14          6.1610    -1.6440     0.3410 c3         1 R82      -0.179100
     15 S15         -0.6850    -1.2250    -1.3850 sy         1 R82       1.189600
     16 O16         -1.1320    -0.6320    -2.6320 o          1 R82      -0.530500
     17 O17         -0.1630    -2.5820    -1.4000 o          1 R82      -0.530500
     18 N18         -1.9780    -1.2550    -0.3520 nh         1 R82      -0.747300
     19 C19         -1.7430    -1.7330     1.0380 c5         1 R82       0.223500
     20 C20         -2.4750    -3.0440     1.2540 c3         1 R82      -0.092100
     21 C21         -2.2870    -0.5910     1.9130 c5         1 R82      -0.046100
     22 C22         -3.2390     0.1120     0.9920 ca         1 R82      -0.125300
     23 C23         -4.2350     1.0280     1.2720 ca         1 R82      -0.088000
     24 C24         -4.9850     1.5540     0.2230 ca         1 R82      -0.133000
     25 C25         -4.7420     1.1460    -1.0820 ca         1 R82      -0.100000
     26 C26         -3.7500     0.2140    -1.3740 ca         1 R82      -0.093000
     27 C27         -2.9970    -0.2770    -0.3210 ca         1 R82       0.286000
     28 H11C         3.1680     3.9850     0.5540 h1         1 R82       0.047367
     29 H12C         2.5340     3.5170     2.1510 h1         1 R82       0.047367
     30 H13C         4.2810     3.7010     1.9040 h1         1 R82       0.047367
     31 H4           1.1220     2.9530     0.4180 ha         1 R82       0.125000
     32 H71C        -1.2460     2.9780     0.7740 h1         1 R82       0.049367
     33 H72C        -0.6950     3.6770    -0.7700 h1         1 R82       0.049367
     34 H73C        -2.3270     2.9890    -0.6320 h1         1 R82       0.049367
     35 H9           1.9520    -1.8370    -0.4630 ha         1 R82       0.162000
     36 H11          4.3650    -0.3920     1.5680 hn         1 R82       0.156000
     37 H141         6.2570    -1.4560     1.4080 hc         1 R82       0.061367
     38 H142         6.2930    -2.7110     0.1630 hc         1 R82       0.061367
     39 H143         6.9690    -1.1260    -0.1750 hc         1 R82       0.061367
     40 H19         -0.6760    -1.8800     1.2090 h1         1 R82       0.063700
     41 H201        -2.1110    -3.8090     0.5690 hc         1 R82       0.049367
     42 H202        -2.3190    -3.3960     2.2740 hc         1 R82       0.049367
     43 H203        -3.5480    -2.9240     1.0970 hc         1 R82       0.049367
     44 H211        -2.7660    -0.9750     2.8140 hc         1 R82       0.059200
     45 H212        -1.4880     0.0820     2.2350 hc         1 R82       0.059200
     46 H23         -4.4280     1.3350     2.2920 ha         1 R82       0.112000
     47 H24         -5.7690     2.2720     0.4250 ha         1 R82       0.113000
     48 H25         -5.3420     1.5460    -1.8890 ha         1 R82       0.117000
     49 H26         -3.5850    -0.1100    -2.3900 ha         1 R82       0.151000
@<TRIPOS>BOND
     1     1     2 1   
     2     1    28 1   
     3     1    29 1   
     4     1    30 1   
     5     2     3 1   
     6     3     4 ar  
     7     3    10 ar  
     8     4     5 ar  
     9     4    31 1   
    10     5     6 1   
    11     5     8 ar  
    12     6     7 1   
    13     7    32 1   
    14     7    33 1   
    15     7    34 1   
    16     8     9 ar  
    17     8    15 1   
    18     9    10 ar  
    19     9    35 1   
    20    10    11 1   
    21    11    12 1   
    22    11    36 1   
    23    12    13 2   
    24    12    14 1   
    25    14    37 1   
    26    14    38 1   
    27    14    39 1   
    28    15    16 2   
    29    15    17 2   
    30    15    18 1   
    31    18    19 1   
    32    18    27 1   
    33    19    20 1   
    34    19    21 1   
    35    19    40 1   
    36    20    41 1   
    37    20    42 1   
    38    20    43 1   
    39    21    22 1   
    40    21    44 1   
    41    21    45 1   
    42    22    23 ar  
    43    22    27 ar  
    44    23    24 ar  
    45    23    46 1   
    46    24    25 ar  
    47    24    47 1   
    48    25    26 ar  
    49    25    48 1   
    50    26    27 ar  
    51    26    49 1   
@<TRIPOS>SUBSTRUCTURE
     1 R82         1 TEMP              0 ****  ****    0 ROOT
