@<TRIPOS>MOLECULE
R82
   49    51     1     0     0
SMALL
No Charge or Current Charge


@<TRIPOS>ATOM
      1 C1           3.0230     4.1270     0.4680 c3         1 R82       0.147900
      2 O2           2.9590     2.6990     0.6250 os         1 R82      -0.339100
      3 C3           2.0020     1.9200    -0.0020 ca         1 R82       0.212100
      4 C4           1.0240     2.4790    -0.8450 ca         1 R82      -0.308000
      5 C5           0.0570     1.6620    -1.4650 ca         1 R82       0.269100
      6 O6          -0.9020     2.2040    -2.2960 os         1 R82      -0.337100
      7 C7          -1.0130     3.6150    -2.5520 c3         1 R82       0.154900
      8 C8           0.0820     0.2730    -1.2370 ca         1 R82      -0.375500
      9 C9           1.0710    -0.2840    -0.4040 ca         1 R82       0.064000
     10 C10          2.0290     0.5330     0.2280 ca         1 R82      -0.135000
     11 N11          3.0380     0.0140     1.0970 ns         1 R82      -0.154000
     12 C12          3.2570    -1.2480     1.6360 c          1 R82       0.604100
     13 O13          2.5340    -2.2180     1.4460 o          1 R82      -0.580100
     14 C14          4.4970    -1.3400     2.5190 c3         1 R82      -0.179100
     15 S15         -1.1210    -0.8690    -1.9440 sy         1 R82       1.189600
     16 O16         -2.1540    -0.1740    -2.7190 o          1 R82      -0.530500
     17 O17         -0.3850    -2.0030    -2.5140 o          1 R82      -0.530500
     18 N18         -1.8540    -1.4330    -0.5120 nh         1 R82      -0.747300
     19 C19         -1.4890    -2.7640     0.0440 c5         1 R82       0.223500
     20 C20         -2.4420    -3.8630    -0.4670 c3         1 R82      -0.092100
     21 C21         -1.5920    -2.5160     1.6110 c5         1 R82      -0.046100
     22 C22         -2.1430    -1.1030     1.6900 ca         1 R82      -0.125300
     23 C23         -2.4870    -0.3990     2.8550 ca         1 R82      -0.088000
     24 C24         -2.9730     0.9180     2.7330 ca         1 R82      -0.133000
     25 C25         -3.1130     1.5100     1.4590 ca         1 R82      -0.100000
     26 C26         -2.7620     0.7880     0.3010 ca         1 R82      -0.093000
     27 C27         -2.2680    -0.5210     0.4470 ca         1 R82       0.286000
     28 H11C         3.1840     4.3980    -0.5840 h1         1 R82       0.047367
     29 H12C         2.0970     4.6000     0.8180 h1         1 R82       0.047367
     30 H13C         3.8550     4.5370     1.0540 h1         1 R82       0.047367
     31 H4           1.0150     3.5480    -1.0160 ha         1 R82       0.125000
     32 H71C        -1.1930     4.1680    -1.6210 h1         1 R82       0.049367
     33 H72C        -0.1000     4.0010    -3.0230 h1         1 R82       0.049367
     34 H73C        -1.8520     3.8120    -3.2300 h1         1 R82       0.049367
     35 H9           1.0830    -1.3580    -0.2550 ha         1 R82       0.162000
     36 H11          3.7220     0.7060     1.3780 hn         1 R82       0.156000
     37 H141         4.4330    -0.5800     3.3060 hc         1 R82       0.061367
     38 H142         4.6460    -2.3430     2.9360 hc         1 R82       0.061367
     39 H143         5.3700    -1.0070     1.9450 hc         1 R82       0.061367
     40 H19         -0.4600    -3.0550    -0.2130 h1         1 R82       0.063700
     41 H201        -2.3640    -3.9790    -1.5540 hc         1 R82       0.049367
     42 H202        -2.2020    -4.8310    -0.0100 hc         1 R82       0.049367
     43 H203        -3.4850    -3.6250    -0.2260 hc         1 R82       0.049367
     44 H211        -2.2450    -3.2440     2.1050 hc         1 R82       0.059200
     45 H212        -0.6070    -2.5900     2.0860 hc         1 R82       0.059200
     46 H23         -2.3790    -0.8600     3.8340 ha         1 R82       0.112000
     47 H24         -3.2450     1.4790     3.6240 ha         1 R82       0.113000
     48 H25         -3.4950     2.5250     1.3700 ha         1 R82       0.117000
     49 H26         -2.8820     1.2380    -0.6780 ha         1 R82       0.151000
@<TRIPOS>BOND
     1     1     2 1   
     2     1    28 1   
     3     1    29 1   
     4     1    30 1   
     5     2     3 1   
     6     3     4 ar  
     7     3    10 ar  
     8     4     5 ar  
     9     4    31 1   
    10     5     6 1   
    11     5     8 ar  
    12     6     7 1   
    13     7    32 1   
    14     7    33 1   
    15     7    34 1   
    16     8     9 ar  
    17     8    15 1   
    18     9    10 ar  
    19     9    35 1   
    20    10    11 1   
    21    11    12 1   
    22    11    36 1   
    23    12    13 2   
    24    12    14 1   
    25    14    37 1   
    26    14    38 1   
    27    14    39 1   
    28    15    16 2   
    29    15    17 2   
    30    15    18 1   
    31    18    19 1   
    32    18    27 1   
    33    19    20 1   
    34    19    21 1   
    35    19    40 1   
    36    20    41 1   
    37    20    42 1   
    38    20    43 1   
    39    21    22 1   
    40    21    44 1   
    41    21    45 1   
    42    22    23 ar  
    43    22    27 ar  
    44    23    24 ar  
    45    23    46 1   
    46    24    25 ar  
    47    24    47 1   
    48    25    26 ar  
    49    25    48 1   
    50    26    27 ar  
    51    26    49 1   
@<TRIPOS>SUBSTRUCTURE
     1 R82         1 TEMP              0 ****  ****    0 ROOT
