@<TRIPOS>MOLECULE
R83
   60    62     1     0     0
SMALL
bcc


@<TRIPOS>ATOM
      1 C1          -3.7710    -1.7350    -3.5600 c3         1 R83       0.129700
      2 O2          -3.6840    -1.5440    -2.1580 os         1 R83      -0.331900
      3 C3          -2.8390    -0.6340    -1.6650 ca         1 R83       0.184100
      4 C4          -1.9880     0.1330    -2.4500 ca         1 R83      -0.315000
      5 C5          -1.1250     1.0580    -1.8670 ca         1 R83       0.252100
      6 O6          -0.2710     1.8050    -2.5700 os         1 R83      -0.305900
      7 C7          -0.1570     1.6010    -3.9670 c3         1 R83       0.128700
      8 C8          -1.1420     1.2070    -0.4770 ca         1 R83      -0.361500
      9 C9          -2.0130     0.4490     0.3040 ca         1 R83       0.006000
     10 C10         -2.8610    -0.4800    -0.2650 ca         1 R83      -0.018400
     11 N11         -3.7580    -1.2740     0.4570 ns         1 R83      -0.468100
     12 C12         -3.6860    -1.6300     1.7650 c          1 R83       0.671100
     13 O13         -2.8110    -1.2490     2.5230 o          1 R83      -0.585100
     14 C14         -4.8070    -2.5280     2.2240 c3         1 R83      -0.180100
     15 S15         -0.0230     2.2880     0.3720 sy         1 R83       1.298200
     16 O16          0.1810     3.5080    -0.3880 o          1 R83      -0.604300
     17 O17         -0.5030     2.3840     1.7440 o          1 R83      -0.604300
     18 N18          1.4240     1.5160     0.4850 n7         1 R83      -0.796100
     19 C19          2.2560     1.2800    -0.6950 c3         1 R83       0.263100
     20 C20          3.5850     0.7220    -0.2520 ca         1 R83      -0.080300
     21 C21          4.7580     1.3810    -0.5970 ca         1 R83      -0.107000
     22 C22          5.9970     0.9190    -0.1730 ca         1 R83      -0.137000
     23 C23          6.0660    -0.2170     0.6170 ca         1 R83      -0.113000
     24 C24          4.9040    -0.8940     0.9620 ca         1 R83      -0.161000
     25 C25          3.6600    -0.4430     0.5280 ca         1 R83       0.119600
     26 N26          2.4550    -1.1110     0.8630 nh         1 R83      -0.660000
     27 C27          1.9700    -2.0170    -0.1810 c6         1 R83       0.182800
     28 C28          0.5210    -2.3970     0.0740 c6         1 R83      -0.080400
     29 C29          0.3430    -2.9880     1.4670 c6         1 R83      -0.072400
     30 C30          0.9530    -2.0710     2.5200 c6         1 R83      -0.080400
     31 C31          2.3970    -1.7350     2.1780 c6         1 R83       0.182800
     32 H11C        -2.8220    -2.0770    -3.9780 h1         1 R83       0.046367
     33 H12C        -4.5230    -2.5020    -3.7170 h1         1 R83       0.046367
     34 H13C        -4.0820    -0.8210    -4.0710 h1         1 R83       0.046367
     35 H4          -1.9910     0.0040    -3.5220 ha         1 R83       0.140000
     36 H71C         0.1420     0.5780    -4.2040 h1         1 R83       0.046700
     37 H72C        -1.0880     1.8340    -4.4890 h1         1 R83       0.046700
     38 H73C         0.6180     2.2820    -4.3090 h1         1 R83       0.046700
     39 H9          -2.0190     0.5880     1.3720 ha         1 R83       0.196000
     40 H11         -4.5090    -1.6800    -0.0790 hn         1 R83       0.328500
     41 H141        -4.4040    -3.3140     2.8610 hc         1 R83       0.063033
     42 H142        -5.5070    -1.9460     2.8250 hc         1 R83       0.063033
     43 H143        -5.3610    -2.9890     1.4090 hc         1 R83       0.063033
     44 H18          1.3430     0.6450     1.0150 hn         1 R83       0.450800
     45 H191         1.7770     0.6010    -1.4070 h1         1 R83       0.050700
     46 H192         2.4130     2.2240    -1.2130 h1         1 R83       0.050700
     47 H21          4.7020     2.2820    -1.1970 ha         1 R83       0.134000
     48 H22          6.8980     1.4530    -0.4460 ha         1 R83       0.133000
     49 H23          7.0240    -0.5860     0.9620 ha         1 R83       0.131000
     50 H24          4.9730    -1.7850     1.5740 ha         1 R83       0.132000
     51 H271         2.0650    -1.5340    -1.1540 h1         1 R83       0.035700
     52 H272         2.5960    -2.9220    -0.2150 h1         1 R83       0.035700
     53 H311         3.0010    -2.6550     2.2180 h1         1 R83       0.035700
     54 H312         2.8120    -1.0430     2.9130 h1         1 R83       0.035700
     55 H281        -0.1060    -1.5070    -0.0290 hc         1 R83       0.050950
     56 H282         0.1960    -3.1050    -0.6910 hc         1 R83       0.050950
     57 H291        -0.7160    -3.1500     1.6780 hc         1 R83       0.041700
     58 H292         0.8290    -3.9680     1.5140 hc         1 R83       0.041700
     59 H301         0.3700    -1.1460     2.5800 hc         1 R83       0.050950
     60 H302         0.9170    -2.5360     3.5070 hc         1 R83       0.050950
@<TRIPOS>BOND
     1     1     2 1   
     2     1    32 1   
     3     1    33 1   
     4     1    34 1   
     5     2     3 1   
     6     3     4 ar  
     7     3    10 ar  
     8     4     5 ar  
     9     4    35 1   
    10     5     6 1   
    11     5     8 ar  
    12     6     7 1   
    13     7    36 1   
    14     7    37 1   
    15     7    38 1   
    16     8     9 ar  
    17     8    15 1   
    18     9    10 ar  
    19     9    39 1   
    20    10    11 1   
    21    11    12 1   
    22    11    40 1   
    23    12    13 2   
    24    12    14 1   
    25    14    41 1   
    26    14    42 1   
    27    14    43 1   
    28    15    16 2   
    29    15    17 2   
    30    15    18 1   
    31    18    19 1   
    32    18    44 1   
    33    19    20 1   
    34    19    45 1   
    35    19    46 1   
    36    20    21 ar  
    37    20    25 ar  
    38    21    22 ar  
    39    21    47 1   
    40    22    23 ar  
    41    22    48 1   
    42    23    24 ar  
    43    23    49 1   
    44    24    25 ar  
    45    24    50 1   
    46    25    26 1   
    47    26    27 1   
    48    26    31 1   
    49    27    28 1   
    50    27    51 1   
    51    27    52 1   
    52    28    29 1   
    53    28    55 1   
    54    28    56 1   
    55    29    30 1   
    56    29    57 1   
    57    29    58 1   
    58    30    31 1   
    59    30    59 1   
    60    30    60 1   
    61    31    53 1   
    62    31    54 1   
@<TRIPOS>SUBSTRUCTURE
     1 R83         1 TEMP              0 ****  ****    0 ROOT
