@<TRIPOS>MOLECULE
R83
   60    62     1     0     0
SMALL
No Charge or Current Charge


@<TRIPOS>ATOM
      1 C1          -3.6120    -2.0750    -3.2650 c3         1 R83       0.152900
      2 O2          -3.5300    -1.7300    -1.8700 os         1 R83      -0.355100
      3 C3          -2.6950    -0.7350    -1.3950 ca         1 R83       0.184100
      4 C4          -1.8790     0.0250    -2.2540 ca         1 R83      -0.297000
      5 C5          -1.0250     1.0220    -1.7390 ca         1 R83       0.252100
      6 O6          -0.2080     1.7580    -2.5720 os         1 R83      -0.329100
      7 C7          -0.1450     1.5500    -3.9940 c3         1 R83       0.151900
      8 C8          -1.0020     1.2620    -0.3510 ca         1 R83      -0.361500
      9 C9          -1.8280     0.5050     0.5070 ca         1 R83       0.024000
     10 C10         -2.6680    -0.5060    -0.0060 ca         1 R83      -0.111000
     11 N11         -3.5010    -1.3200     0.8190 ns         1 R83      -0.142000
     12 C12         -3.6220    -1.4510     2.1960 c          1 R83       0.604100
     13 O13         -2.9620    -0.8240     3.0150 o          1 R83      -0.585100
     14 C14         -4.6660    -2.4740     2.6330 c3         1 R83      -0.180100
     15 S15          0.0170     2.5480     0.3840 sy         1 R83       1.156600
     16 O16          0.2880     3.6220    -0.5750 o          1 R83      -0.533500
     17 O17         -0.4600     2.8470     1.7360 o          1 R83      -0.533500
     18 N18          1.4620     1.7500     0.6140 n7         1 R83      -0.851300
     19 C19          2.3570     1.5880    -0.5320 c3         1 R83       0.263100
     20 C20          3.6280     0.8690    -0.0980 ca         1 R83      -0.080300
     21 C21          4.8690     1.5320    -0.2120 ca         1 R83      -0.089000
     22 C22          6.0570     0.8950     0.1830 ca         1 R83      -0.119000
     23 C23          6.0160    -0.4100     0.6940 ca         1 R83      -0.095000
     24 C24          4.7840    -1.0750     0.8130 ca         1 R83      -0.143000
     25 C25          3.5840    -0.4460     0.4250 ca         1 R83       0.258000
     26 N26          2.3610    -1.1480     0.5490 nh         1 R83      -0.798400
     27 C27          1.9930    -2.0650    -0.5630 c6         1 R83       0.182800
     28 C28          0.4880    -2.4140    -0.5300 c6         1 R83      -0.080400
     29 C29          0.0700    -2.9940     0.8410 c6         1 R83      -0.072400
     30 C30          0.5000    -2.0380     1.9780 c6         1 R83      -0.080400
     31 C31          2.0080    -1.7020     1.8870 c6         1 R83       0.182800
     32 H11C        -2.6370    -2.4080    -3.6420 h1         1 R83       0.046367
     33 H12C        -4.3290    -2.8920    -3.4120 h1         1 R83       0.046367
     34 H13C        -3.9480    -1.2170    -3.8600 h1         1 R83       0.046367
     35 H4          -1.9040    -0.1640    -3.3200 ha         1 R83       0.122000
     36 H71C         0.1750     0.5260    -4.2250 h1         1 R83       0.046700
     37 H72C        -1.1220     1.7300    -4.4580 h1         1 R83       0.046700
     38 H73C         0.5780     2.2410    -4.4450 h1         1 R83       0.046700
     39 H9          -1.8140     0.7110     1.5740 ha         1 R83       0.178000
     40 H11         -4.1130    -1.9310     0.2920 hn         1 R83       0.162000
     41 H141        -4.7420    -2.5620     3.7230 hc         1 R83       0.063033
     42 H142        -5.6300    -2.2180     2.1790 hc         1 R83       0.063033
     43 H143        -4.4380    -3.4390     2.1650 hc         1 R83       0.063033
     44 H18          1.1640     0.7990     0.8340 hn         1 R83       0.506000
     45 H191         1.8790     0.9980    -1.3240 h1         1 R83       0.050700
     46 H192         2.6240     2.5640    -0.9600 h1         1 R83       0.050700
     47 H21          4.9140     2.5450    -0.6070 ha         1 R83       0.116000
     48 H22          7.0090     1.4140     0.0900 ha         1 R83       0.115000
     49 H23          6.9350    -0.9060     0.9980 ha         1 R83       0.113000
     50 H24          4.7620    -2.0880     1.2030 ha         1 R83       0.114000
     51 H271         2.2250    -1.5970    -1.5310 h1         1 R83       0.035700
     52 H272         2.5810    -2.9920    -0.4950 h1         1 R83       0.035700
     53 H311         2.5900    -2.6150     2.0830 h1         1 R83       0.035700
     54 H312         2.2580    -0.9750     2.6750 h1         1 R83       0.035700
     55 H281        -0.0870    -1.5060    -0.7370 hc         1 R83       0.050950
     56 H282         0.2500    -3.1260    -1.3310 hc         1 R83       0.050950
     57 H291        -1.0160    -3.1530     0.8700 hc         1 R83       0.041700
     58 H292         0.5400    -3.9760     0.9850 hc         1 R83       0.041700
     59 H301        -0.0830    -1.1110     1.9290 hc         1 R83       0.050950
     60 H302         0.2800    -2.4920     2.9530 hc         1 R83       0.050950
@<TRIPOS>BOND
     1     1     2 1   
     2     1    32 1   
     3     1    33 1   
     4     1    34 1   
     5     2     3 1   
     6     3     4 ar  
     7     3    10 ar  
     8     4     5 ar  
     9     4    35 1   
    10     5     6 1   
    11     5     8 ar  
    12     6     7 1   
    13     7    36 1   
    14     7    37 1   
    15     7    38 1   
    16     8     9 ar  
    17     8    15 1   
    18     9    10 ar  
    19     9    39 1   
    20    10    11 1   
    21    11    12 1   
    22    11    40 1   
    23    12    13 2   
    24    12    14 1   
    25    14    41 1   
    26    14    42 1   
    27    14    43 1   
    28    15    16 2   
    29    15    17 2   
    30    15    18 1   
    31    18    19 1   
    32    18    44 1   
    33    19    20 1   
    34    19    45 1   
    35    19    46 1   
    36    20    21 ar  
    37    20    25 ar  
    38    21    22 ar  
    39    21    47 1   
    40    22    23 ar  
    41    22    48 1   
    42    23    24 ar  
    43    23    49 1   
    44    24    25 ar  
    45    24    50 1   
    46    25    26 1   
    47    26    27 1   
    48    26    31 1   
    49    27    28 1   
    50    27    51 1   
    51    27    52 1   
    52    28    29 1   
    53    28    55 1   
    54    28    56 1   
    55    29    30 1   
    56    29    57 1   
    57    29    58 1   
    58    30    31 1   
    59    30    59 1   
    60    30    60 1   
    61    31    53 1   
    62    31    54 1   
@<TRIPOS>SUBSTRUCTURE
     1 R83         1 TEMP              0 ****  ****    0 ROOT
