@<TRIPOS>MOLECULE
R84
   79    81     1     0     0
SMALL
bcc


@<TRIPOS>ATOM
      1 C1          -3.7190     0.3350    -4.6280 c3         1 R84       0.131700
      2 O2          -3.3920    -0.2690    -3.3860 os         1 R84      -0.315900
      3 C3          -3.2100     0.4990    -2.3080 ca         1 R84       0.167100
      4 C4          -3.2790     1.8850    -2.3300 ca         1 R84      -0.316000
      5 C5          -3.0780     2.6250    -1.1670 ca         1 R84       0.226100
      6 O6          -3.1170     3.9590    -1.1330 os         1 R84      -0.314900
      7 C7          -3.3310     4.6810    -2.3330 c3         1 R84       0.134700
      8 C8          -2.8120     1.9440     0.0240 ca         1 R84      -0.355500
      9 C9          -2.7640     0.5510     0.0430 ca         1 R84      -0.006000
     10 C10         -2.9510    -0.1900    -1.1070 ca         1 R84       0.014600
     11 N11         -2.9330    -1.5880    -1.1470 ns         1 R84      -0.481100
     12 C12         -2.2540    -2.4290    -0.3250 c          1 R84       0.661100
     13 O13         -1.5940    -2.0440     0.6270 o          1 R84      -0.596100
     14 C14         -2.3800    -3.8910    -0.6850 c3         1 R84      -0.126400
     15 C15         -2.6890    -4.7560     0.5290 c3         1 R84      -0.205400
     16 C16         -2.7620    -6.2680     0.2400 c          1 R84       0.931600
     17 O17         -2.3600    -6.6680    -0.8700 o          1 R84      -0.843300
     18 O18         -3.2040    -6.9750     1.1680 o          1 R84      -0.843300
     19 S19         -2.4780     2.7910     1.5450 sy         1 R84       1.302200
     20 O20         -3.3180     3.9690     1.6620 o          1 R84      -0.613300
     21 O21         -2.5270     1.7840     2.5970 o          1 R84      -0.613300
     22 N22         -0.9130     3.2890     1.5150 n7         1 R84      -0.804100
     23 C23         -0.4620     4.3460     0.6090 c3         1 R84       0.265100
     24 C24          0.9690     4.6840     0.9430 ca         1 R84      -0.082300
     25 C25          1.3090     5.9870     1.2830 ca         1 R84      -0.114000
     26 C26          2.6080     6.3230     1.6420 ca         1 R84      -0.150000
     27 C27          3.5830     5.3380     1.6710 ca         1 R84      -0.117000
     28 C28          3.2620     4.0330     1.3230 ca         1 R84      -0.159000
     29 C29          1.9650     3.6930     0.9490 ca         1 R84       0.129600
     30 N30          1.6030     2.3690     0.5900 nh         1 R84      -0.657000
     31 C31          1.5770     2.1430    -0.8560 c6         1 R84       0.178300
     32 C32          0.8500     0.8470    -1.1790 c6         1 R84      -0.075400
     33 C33          1.4400    -0.3590    -0.4440 c6         1 R84      -0.064700
     34 C34          2.7470    -0.7820    -1.0950 c3         1 R84       0.143400
     35 O35          3.2090    -1.9670    -0.4390 os         1 R84      -0.424900
     36 C36          4.3720    -2.4860    -0.8220 c          1 R84       0.635100
     37 O37          5.0440    -2.0110    -1.7040 o          1 R84      -0.578000
     38 C38          4.7120    -3.7160    -0.0260 c3         1 R84      -0.112400
     39 C39          6.0810    -4.2870    -0.3420 c3         1 R84      -0.203400
     40 C40          6.4300    -5.5740     0.4290 c          1 R84       0.927600
     41 O41          5.5060    -6.1630     1.0240 o          1 R84      -0.843300
     42 O42          7.6230    -5.9340     0.3700 o          1 R84      -0.843300
     43 C43          1.5780    -0.0250     1.0430 c6         1 R84      -0.075400
     44 C44          2.3010     1.2940     1.2820 c6         1 R84       0.178300
     45 H11C        -2.9200     0.9910    -4.9780 h1         1 R84       0.039367
     46 H12C        -3.8450    -0.4780    -5.3360 h1         1 R84       0.039367
     47 H13C        -4.6510     0.9000    -4.5660 h1         1 R84       0.039367
     48 H4          -3.4880     2.3930    -3.2600 ha         1 R84       0.129000
     49 H71C        -2.5440     4.4920    -3.0660 h1         1 R84       0.039033
     50 H72C        -4.3000     4.4470    -2.7790 h1         1 R84       0.039033
     51 H73C        -3.3150     5.7320    -2.0590 h1         1 R84       0.039033
     52 H9          -2.5730     0.0420     0.9740 ha         1 R84       0.203000
     53 H11         -3.4120    -2.0120    -1.9260 hn         1 R84       0.329500
     54 H141        -3.1360    -4.0380    -1.4580 hc         1 R84       0.064200
     55 H142        -1.4280    -4.2000    -1.1250 hc         1 R84       0.064200
     56 H151        -1.9280    -4.5950     1.2980 hc         1 R84       0.035700
     57 H152        -3.6340    -4.4410     0.9810 hc         1 R84       0.035700
     58 H22         -0.2670     2.4990     1.4490 hn         1 R84       0.458800
     59 H231        -0.5510     4.0510    -0.4420 h1         1 R84       0.048200
     60 H232        -1.0880     5.2260     0.7470 h1         1 R84       0.048200
     61 H25          0.5400     6.7500     1.2820 ha         1 R84       0.126000
     62 H26          2.8500     7.3430     1.9090 ha         1 R84       0.122000
     63 H27          4.5970     5.5830     1.9590 ha         1 R84       0.125000
     64 H28          4.0350     3.2760     1.3390 ha         1 R84       0.140000
     65 H311         1.0730     2.9780    -1.3440 h1         1 R84       0.033950
     66 H312         2.6020     2.1270    -1.2580 h1         1 R84       0.033950
     67 H441         3.3490     1.2100     0.9610 h1         1 R84       0.033950
     68 H442         2.3140     1.5150     2.3510 h1         1 R84       0.033950
     69 H321        -0.2000     0.9510    -0.8930 hc         1 R84       0.058950
     70 H322         0.8640     0.6890    -2.2610 hc         1 R84       0.058950
     71 H33          0.7370    -1.1900    -0.5410 hc         1 R84       0.091700
     72 H341         2.5790    -0.9890    -2.1560 h1         1 R84       0.031700
     73 H342         3.5110    -0.0040    -1.0300 h1         1 R84       0.031700
     74 H431         0.5760     0.0350     1.4760 hc         1 R84       0.058950
     75 H432         2.0970    -0.8220     1.5780 hc         1 R84       0.058950
     76 H381         4.6280    -3.4680     1.0350 hc         1 R84       0.081200
     77 H382         3.9330    -4.4620    -0.2060 hc         1 R84       0.081200
     78 H391         6.1530    -4.5120    -1.4110 hc         1 R84       0.027200
     79 H392         6.8570    -3.5410    -0.1520 hc         1 R84       0.027200
@<TRIPOS>BOND
     1     1     2 1   
     2     1    45 1   
     3     1    46 1   
     4     1    47 1   
     5     2     3 1   
     6     3     4 ar  
     7     3    10 ar  
     8     4     5 ar  
     9     4    48 1   
    10     5     6 1   
    11     5     8 ar  
    12     6     7 1   
    13     7    49 1   
    14     7    50 1   
    15     7    51 1   
    16     8     9 ar  
    17     8    19 1   
    18     9    10 ar  
    19     9    52 1   
    20    10    11 1   
    21    11    12 1   
    22    11    53 1   
    23    12    13 2   
    24    12    14 1   
    25    14    15 1   
    26    14    54 1   
    27    14    55 1   
    28    15    16 1   
    29    15    56 1   
    30    15    57 1   
    31    16    17 1   
    32    16    18 1   
    33    19    20 2   
    34    19    21 2   
    35    19    22 1   
    36    22    23 1   
    37    22    58 1   
    38    23    24 1   
    39    23    59 1   
    40    23    60 1   
    41    24    25 ar  
    42    24    29 ar  
    43    25    26 ar  
    44    25    61 1   
    45    26    27 ar  
    46    26    62 1   
    47    27    28 ar  
    48    27    63 1   
    49    28    29 ar  
    50    28    64 1   
    51    29    30 1   
    52    30    31 1   
    53    30    44 1   
    54    31    32 1   
    55    31    65 1   
    56    31    66 1   
    57    32    33 1   
    58    32    69 1   
    59    32    70 1   
    60    33    34 1   
    61    33    43 1   
    62    33    71 1   
    63    34    35 1   
    64    34    72 1   
    65    34    73 1   
    66    35    36 1   
    67    36    37 2   
    68    36    38 1   
    69    38    39 1   
    70    38    76 1   
    71    38    77 1   
    72    39    40 1   
    73    39    78 1   
    74    39    79 1   
    75    40    41 1   
    76    40    42 1   
    77    43    44 1   
    78    43    74 1   
    79    43    75 1   
    80    44    67 1   
    81    44    68 1   
@<TRIPOS>SUBSTRUCTURE
     1 R84         1 TEMP              0 ****  ****    0 ROOT
