@<TRIPOS>MOLECULE
R84
   79    81     1     0     0
SMALL
No Charge or Current Charge


@<TRIPOS>ATOM
      1 C1          -2.7180    -0.3160    -4.4520 c3         1 R84       0.154900
      2 O2          -2.5580    -0.7500    -3.0900 os         1 R84      -0.339100
      3 C3          -2.5880     0.1250    -2.0190 ca         1 R84       0.167100
      4 C4          -2.8010     1.5070    -2.1930 ca         1 R84      -0.298000
      5 C5          -2.8080     2.3790    -1.0840 ca         1 R84       0.226100
      6 O6          -2.9920     3.7360    -1.2490 os         1 R84      -0.338100
      7 C7          -3.1520     4.3550    -2.5370 c3         1 R84       0.157900
      8 C8          -2.6140     1.8530     0.2100 ca         1 R84      -0.355500
      9 C9          -2.4110     0.4660     0.3810 ca         1 R84       0.012000
     10 C10         -2.3810    -0.4020    -0.7300 ca         1 R84      -0.078000
     11 N11         -2.1570    -1.8060    -0.6130 ns         1 R84      -0.155000
     12 C12         -1.7670    -2.6090     0.4500 c          1 R84       0.594100
     13 O13         -1.4880    -2.1860     1.5660 o          1 R84      -0.596100
     14 C14         -1.6650    -4.1040     0.1080 c3         1 R84      -0.126400
     15 C15         -2.8400    -4.9250     0.7140 c3         1 R84      -0.205400
     16 C16         -2.7130    -6.4100     0.3350 c          1 R84       0.721000
     17 O17         -2.0640    -7.1380     1.0700 o          1 R84      -0.738000
     18 O18         -3.2180    -6.7800    -0.7130 o          1 R84      -0.738000
     19 S19         -2.6630     2.8830     1.6850 sy         1 R84       1.160600
     20 O20         -3.4850     4.0780     1.4680 o          1 R84      -0.542500
     21 O21         -2.8510     2.0440     2.8710 o          1 R84      -0.542500
     22 N22         -1.0860     3.4090     1.7860 n7         1 R84      -0.859300
     23 C23         -0.6840     4.5600     0.9780 c3         1 R84       0.265100
     24 C24          0.7800     4.8920     1.2390 ca         1 R84      -0.082300
     25 C25          1.1150     6.1580     1.7660 ca         1 R84      -0.096000
     26 C26          2.4540     6.4940     2.0190 ca         1 R84      -0.132000
     27 C27          3.4720     5.5690     1.7450 ca         1 R84      -0.099000
     28 C28          3.1460     4.3070     1.2210 ca         1 R84      -0.141000
     29 C29          1.8050     3.9540     0.9670 ca         1 R84       0.268000
     30 N30          1.5150     2.6770     0.4300 nh         1 R84      -0.795400
     31 C31          1.5960     2.5370    -1.0490 c6         1 R84       0.178300
     32 C32          0.8820     1.2560    -1.5370 c6         1 R84      -0.075400
     33 C33          1.4130    -0.0200    -0.8330 c6         1 R84      -0.064700
     34 C34          2.8490    -0.3860    -1.3110 c3         1 R84       0.166600
     35 O35          3.2430    -1.6320    -0.7140 os         1 R84      -0.448100
     36 C36          4.4900    -2.1180    -1.0050 c          1 R84       0.586100
     37 O37          5.2930    -1.5650    -1.7460 o          1 R84      -0.529000
     38 C38          4.7660    -3.4480    -0.2960 c3         1 R84      -0.112400
     39 C39          4.4680    -4.6690    -1.2110 c3         1 R84      -0.203400
     40 C40          4.8020    -5.9780    -0.4770 c          1 R84       0.717000
     41 O41          3.9310    -6.4940     0.2060 o          1 R84      -0.738000
     42 O42          5.9430    -6.4080    -0.5590 o          1 R84      -0.738000
     43 C43          1.3170     0.1870     0.7050 c6         1 R84      -0.075400
     44 C44          2.0300     1.4830     1.1590 c6         1 R84       0.178300
     45 H11C        -1.9320     0.3980    -4.7280 h1         1 R84       0.039367
     46 H12C        -2.6530    -1.1730    -5.1330 h1         1 R84       0.039367
     47 H13C        -3.6960     0.1600    -4.5970 h1         1 R84       0.039367
     48 H4          -2.9530     1.9020    -3.1900 ha         1 R84       0.111000
     49 H71C        -2.2720     4.1750    -3.1670 h1         1 R84       0.039033
     50 H72C        -4.0410     3.9680    -3.0490 h1         1 R84       0.039033
     51 H73C        -3.2710     5.4400    -2.4230 h1         1 R84       0.039033
     52 H9          -2.2830     0.0700     1.3850 ha         1 R84       0.185000
     53 H11         -2.3140    -2.3100    -1.4770 hn         1 R84       0.163000
     54 H141        -1.6780    -4.2370    -0.9810 hc         1 R84       0.064200
     55 H142        -0.7240    -4.4910     0.5150 hc         1 R84       0.064200
     56 H151        -2.7670    -4.8040     1.8020 hc         1 R84       0.035700
     57 H152        -3.7560    -4.5020     0.2830 hc         1 R84       0.035700
     58 H22         -0.5620     2.6300     1.3860 hn         1 R84       0.514000
     59 H231        -0.8060     4.3500    -0.0930 h1         1 R84       0.048200
     60 H232        -1.2990     5.4380     1.2160 h1         1 R84       0.048200
     61 H25          0.3340     6.8840     1.9830 ha         1 R84       0.108000
     62 H26          2.7030     7.4720     2.4250 ha         1 R84       0.104000
     63 H27          4.5110     5.8280     1.9350 ha         1 R84       0.107000
     64 H28          3.9410     3.6000     1.0030 ha         1 R84       0.122000
     65 H311         1.1260     3.4060    -1.5330 h1         1 R84       0.033950
     66 H312         2.6490     2.5170    -1.3660 h1         1 R84       0.033950
     67 H441         3.1120     1.3770     0.9970 h1         1 R84       0.033950
     68 H442         1.8730     1.6100     2.2410 h1         1 R84       0.033950
     69 H321        -0.1870     1.3630    -1.3350 hc         1 R84       0.058950
     70 H322         0.9800     1.1640    -2.6270 hc         1 R84       0.058950
     71 H33          0.7740    -0.8660    -1.1180 hc         1 R84       0.091700
     72 H341         2.8460    -0.4720    -2.4060 h1         1 R84       0.031700
     73 H342         3.5480     0.4140    -1.0330 h1         1 R84       0.031700
     74 H431         0.2640     0.2370     1.0050 hc         1 R84       0.058950
     75 H432         1.7390    -0.6750     1.2390 hc         1 R84       0.058950
     76 H381         5.8190    -3.4750     0.0060 hc         1 R84       0.081200
     77 H382         4.1140    -3.5250     0.5820 hc         1 R84       0.081200
     78 H391         3.3960    -4.6200    -1.4400 hc         1 R84       0.027200
     79 H392         5.1130    -4.5510    -2.0910 hc         1 R84       0.027200
@<TRIPOS>BOND
     1     1     2 1   
     2     1    45 1   
     3     1    46 1   
     4     1    47 1   
     5     2     3 1   
     6     3     4 ar  
     7     3    10 ar  
     8     4     5 ar  
     9     4    48 1   
    10     5     6 1   
    11     5     8 ar  
    12     6     7 1   
    13     7    49 1   
    14     7    50 1   
    15     7    51 1   
    16     8     9 ar  
    17     8    19 1   
    18     9    10 ar  
    19     9    52 1   
    20    10    11 1   
    21    11    12 1   
    22    11    53 1   
    23    12    13 2   
    24    12    14 1   
    25    14    15 1   
    26    14    54 1   
    27    14    55 1   
    28    15    16 1   
    29    15    56 1   
    30    15    57 1   
    31    16    17 1   
    32    16    18 1   
    33    19    20 2   
    34    19    21 2   
    35    19    22 1   
    36    22    23 1   
    37    22    58 1   
    38    23    24 1   
    39    23    59 1   
    40    23    60 1   
    41    24    25 ar  
    42    24    29 ar  
    43    25    26 ar  
    44    25    61 1   
    45    26    27 ar  
    46    26    62 1   
    47    27    28 ar  
    48    27    63 1   
    49    28    29 ar  
    50    28    64 1   
    51    29    30 1   
    52    30    31 1   
    53    30    44 1   
    54    31    32 1   
    55    31    65 1   
    56    31    66 1   
    57    32    33 1   
    58    32    69 1   
    59    32    70 1   
    60    33    34 1   
    61    33    43 1   
    62    33    71 1   
    63    34    35 1   
    64    34    72 1   
    65    34    73 1   
    66    35    36 1   
    67    36    37 2   
    68    36    38 1   
    69    38    39 1   
    70    38    76 1   
    71    38    77 1   
    72    39    40 1   
    73    39    78 1   
    74    39    79 1   
    75    40    41 1   
    76    40    42 1   
    77    43    44 1   
    78    43    74 1   
    79    43    75 1   
    80    44    67 1   
    81    44    68 1   
@<TRIPOS>SUBSTRUCTURE
     1 R84         1 TEMP              0 ****  ****    0 ROOT
