@<TRIPOS>MOLECULE
R85
   80    84     1     0     0
SMALL
No Charge or Current Charge


@<TRIPOS>ATOM
      1 C1          -2.9090    50.1460   -18.5940 cc         1 R85      -0.166000
      2 C2          -2.1440    49.8900   -17.4820 cd         1 R85      -0.137000
      3 C3          -2.7290    48.7430   -16.8800 cd         1 R85       0.258900
      4 N6           0.6950    52.2290   -20.7910 nb         1 R85      -0.315000
      5 C7           1.5070    52.0260   -16.5350 ca         1 R85       0.123100
      6 C8           0.9470    51.1560   -15.5780 ca         1 R85      -0.238000
      7 C9          -0.2350    50.4460   -15.8460 ca         1 R85       0.329000
      8 C10         -1.7970    50.1950   -13.9090 c6         1 R85       0.215800
      9 C11         -1.4900    49.9010   -12.4250 c6         1 R85      -0.108900
     10 C12         -1.4140    48.3670   -12.1560 c6         1 R85       0.188500
     11 C13         -0.7690    47.6030   -13.3510 c6         1 R85      -0.108900
     12 C14          0.0750    48.5210   -14.2640 c6         1 R85       0.215800
     13 C19          2.0770    54.2570   -22.0120 ca         1 R85       0.185900
     14 C20          1.3530    53.3440   -22.8000 ca         1 R85      -0.125000
     15 C21          0.6720    52.3160   -22.1240 ca         1 R85       0.433900
     16 C22         -0.8370    50.2640   -22.3980 ca         1 R85       0.369000
     17 C24         -1.0620    48.3210   -20.9230 ca         1 R85      -0.048000
     18 C27         -2.0640    49.9350   -23.0060 ca         1 R85      -0.362500
     19 Cl           1.3170    53.5000   -24.5590 cl         1 R85      -0.163000
     20 N5           2.1030    54.1620   -20.6660 nb         1 R85      -0.269000
     21 N7          -0.1110    51.3870   -22.8050 nu         1 R85      -0.972900
     22 P           -2.7750    50.9370   -24.3520 py         1 R85       1.184500
     23 C28         -3.5370    49.7750   -25.5390 c3         1 R85      -0.477600
     24 C29         -4.2310    51.7490   -23.6090 c3         1 R85      -0.477600
     25 O1          -1.8320    51.8990   -24.9880 o          1 R85      -0.560000
     26 C26         -2.7930    48.8130   -22.5500 ca         1 R85      -0.050000
     27 C25         -2.2930    48.0110   -21.5140 ca         1 R85      -0.134000
     28 C23         -0.3400    49.4380   -21.3680 ca         1 R85      -0.111000
     29 C18          1.3970    53.1550   -20.1270 ca         1 R85       0.424900
     30 C6           0.8670    52.1990   -17.7860 ca         1 R85       0.252000
     31 C5          -0.3410    51.5150   -18.0290 ca         1 R85      -0.072000
     32 O            2.6770    52.7310   -16.2850 os         1 R85      -0.355100
     33 C17          3.4010    52.6140   -15.0460 c3         1 R85       0.153900
     34 N2          -0.7470    49.6390   -14.8120 nh         1 R85      -0.816400
     35 C4          -0.9000    50.6160   -17.0950 ca         1 R85      -0.043000
     36 N1          -3.8040    48.3070   -17.5120 nc         1 R85      -0.539800
     37 N           -3.9080    49.1830   -18.5660 na         1 R85       0.128800
     38 C           -5.0020    49.0390   -19.5390 c3         1 R85       0.076900
     39 H1          -2.8450    50.8920   -19.3740 h4         1 R85       0.152000
     40 H2          -2.4000    48.1910   -16.0120 h4         1 R85       0.046100
     41 H3           1.4140    51.0280   -14.6080 ha         1 R85       0.119000
     42 H4          -1.8700    51.2840   -14.0440 h1         1 R85       0.041700
     43 H5          -2.7790    49.7730   -14.1700 h1         1 R85       0.041700
     44 H6          -0.5480    50.3980   -12.1620 hc         1 R85       0.053950
     45 H7          -2.2660    50.3540   -11.7950 hc         1 R85       0.053950
     46 H8          -2.4550    48.0110   -12.1180 h1         1 R85       0.057700
     47 H9          -1.5690    47.1550   -13.9550 hc         1 R85       0.053950
     48 H10         -0.1630    46.7580   -12.9990 hc         1 R85       0.053950
     49 H11          0.4830    47.9190   -15.0900 h1         1 R85       0.041700
     50 H12          0.9280    48.9160   -13.6920 h1         1 R85       0.041700
     51 H13         -1.1390    48.0680    -8.7430 h1         1 R85       0.029200
     52 H14         -1.5430    49.5780    -9.5890 h1         1 R85       0.029200
     53 H15         -2.6020    48.1540    -9.7450 h1         1 R85       0.029200
     54 H16          1.0750    47.9420    -9.7880 h1         1 R85       0.029200
     55 H17          1.2500    47.9320   -11.5490 h1         1 R85       0.029200
     56 H18          0.8300    49.4410   -10.7030 h1         1 R85       0.029200
     57 H19          2.6370    55.0760   -22.4590 h4         1 R85       0.032100
     58 H20         -0.6680    47.6980   -20.1230 ha         1 R85       0.123000
     59 H21         -0.3060    51.6930   -23.7620 hn         1 R85       0.553000
     60 H22         -4.4630    49.3590   -25.1290 hc         1 R85       0.080367
     61 H23         -3.7620    50.3110   -26.4670 hc         1 R85       0.080367
     62 H24         -2.8330    48.9630   -25.7510 hc         1 R85       0.080367
     63 H25         -3.8940    52.4480   -22.8370 hc         1 R85       0.080367
     64 H26         -4.7780    52.2950   -24.3840 hc         1 R85       0.080367
     65 H27         -4.8880    50.9980   -23.1570 hc         1 R85       0.080367
     66 H28         -3.7530    48.5530   -22.9930 ha         1 R85       0.101000
     67 H29         -2.8580    47.1470   -21.1710 ha         1 R85       0.123000
     68 H30          0.6200    49.6520   -20.9120 ha         1 R85       0.138000
     69 H31          2.1830    53.6440   -18.3440 hn         1 R85       0.526000
     70 H32         -0.8540    51.6810   -18.9640 ha         1 R85       0.144000
     71 H33          4.2930    53.2510   -15.0660 h1         1 R85       0.041367
     72 H34          2.7780    52.9290   -14.1990 h1         1 R85       0.041367
     73 H35          3.7260    51.5790   -14.8800 h1         1 R85       0.041367
     74 H37         -5.0540    48.0000   -19.8840 h1         1 R85       0.052033
     75 H38         -5.9510    49.3150   -19.0650 h1         1 R85       0.052033
     76 H39         -4.8210    49.6960   -20.3980 h1         1 R85       0.052033
     77 N4           1.4470    53.0610   -18.7440 nu         1 R85      -0.914900
     78 N3          -0.7760    48.0240   -10.8430 n3         1 R85      -0.725600
     79 C15         -1.5560    48.4820    -9.6700 c3         1 R85       0.157100
     80 C16          0.6670    48.3550   -10.7210 c3         1 R85       0.157100
@<TRIPOS>BOND
     1     1     2 2   
     2     1    37 1   
     3     1    39 1   
     4     2     3 1   
     5     2    35 1   
     6     3    36 2   
     7     3    40 1   
     8     4    15 ar  
     9     4    29 ar  
    10     5     6 ar  
    11     5    30 ar  
    12     5    32 1   
    13     6     7 ar  
    14     6    41 1   
    15     7    34 1   
    16     7    35 ar  
    17     8     9 1   
    18     8    34 1   
    19     8    42 1   
    20     8    43 1   
    21     9    10 1   
    22     9    44 1   
    23     9    45 1   
    24    10    11 1   
    25    10    46 1   
    26    10    78 1   
    27    11    12 1   
    28    11    47 1   
    29    11    48 1   
    30    12    34 1   
    31    12    49 1   
    32    12    50 1   
    33    13    14 ar  
    34    13    20 ar  
    35    13    57 1   
    36    14    15 ar  
    37    14    19 1   
    38    15    21 1   
    39    16    18 ar  
    40    16    21 1   
    41    16    28 ar  
    42    17    27 ar  
    43    17    28 ar  
    44    17    58 1   
    45    18    22 1   
    46    18    26 ar  
    47    20    29 ar  
    48    21    59 1   
    49    22    23 1   
    50    22    24 1   
    51    22    25 2   
    52    23    60 1   
    53    23    61 1   
    54    23    62 1   
    55    24    63 1   
    56    24    64 1   
    57    24    65 1   
    58    26    27 ar  
    59    26    66 1   
    60    27    67 1   
    61    28    68 1   
    62    29    77 1   
    63    30    31 ar  
    64    30    77 1   
    65    31    35 ar  
    66    31    70 1   
    67    32    33 1   
    68    33    71 1   
    69    33    72 1   
    70    33    73 1   
    71    36    37 1   
    72    37    38 1   
    73    38    74 1   
    74    38    75 1   
    75    38    76 1   
    76    51    79 1   
    77    52    79 1   
    78    53    79 1   
    79    54    80 1   
    80    55    80 1   
    81    56    80 1   
    82    69    77 1   
    83    78    79 1   
    84    78    80 1   
@<TRIPOS>SUBSTRUCTURE
     1 R85         1 TEMP              0 ****  ****    0 ROOT
