@<TRIPOS>MOLECULE
R85
   80    84     1     0     0
SMALL
bcc


@<TRIPOS>ATOM
      1 C1          -2.8450    49.8800   -18.4610 cc         1 R85      -0.133300
      2 C2          -1.7690    49.4770   -17.6940 cd         1 R85      -0.202300
      3 C3          -2.0080    48.1010   -17.5010 cd         1 R85       0.324200
      4 N6           0.7500    52.0960   -20.8740 nb         1 R85      -0.841000
      5 C7           1.6970    51.7720   -16.7530 ca         1 R85       0.123100
      6 C8           1.1890    50.8950   -15.8110 ca         1 R85      -0.256000
      7 C9           0.0250    50.1500   -16.0430 ca         1 R85       0.190600
      8 C10         -1.8610    49.4170   -14.6450 c6         1 R85       0.215800
      9 C11         -1.9750    49.5810   -13.1360 c6         1 R85      -0.108900
     10 C12         -1.4610    48.3190   -12.4230 c6         1 R85       0.188500
     11 C13         -0.2130    47.7920   -13.1610 c6         1 R85      -0.108900
     12 C14          0.4510    48.8530   -14.0210 c6         1 R85       0.215800
     13 C19          2.0070    54.1600   -22.0600 ca         1 R85       0.514200
     14 C20          1.2840    53.2890   -22.8440 ca         1 R85      -0.347200
     15 C21          0.6450    52.2190   -22.1890 ca         1 R85       0.762200
     16 C22         -0.7470    50.2030   -22.3420 ca         1 R85       0.230600
     17 C24         -0.7170    48.1740   -21.0470 ca         1 R85      -0.066000
     18 C27         -2.0850    49.9600   -22.6850 ca         1 R85      -0.362500
     19 CL           1.1730    53.5020   -24.5540 cl         1 R85      -0.071400
     20 N5           2.1120    54.0360   -20.7470 nb         1 R85      -0.795000
     21 N7          -0.0950    51.3240   -22.8810 nu         1 R85      -0.779300
     22 P           -2.9510    51.1590   -23.7400 py         1 R85       1.098200
     23 C28         -4.5280    50.4190   -24.2120 c3         1 R85      -0.319800
     24 C29         -3.3840    52.5350   -22.6450 c3         1 R85      -0.319800
     25 O1          -2.1030    51.5670   -24.9220 o          1 R85      -0.789300
     26 C26         -2.7090    48.8070   -22.2140 ca         1 R85      -0.068000
     27 C25         -2.0360    47.9170   -21.3940 ca         1 R85      -0.152000
     28 C23         -0.0700    49.3010   -21.5240 ca         1 R85      -0.129000
     29 C18          1.4630    52.9950   -20.2090 ca         1 R85       0.950900
     30 C6           1.0320    51.9570   -17.9780 ca         1 R85       0.113600
     31 C5          -0.1140    51.2120   -18.2080 ca         1 R85      -0.090000
     32 O            2.8090    52.5130   -16.5730 os         1 R85      -0.331900
     33 C17          3.5070    52.4170   -15.3480 c3         1 R85       0.130700
     34 N2          -0.4620    49.2870   -15.0640 nh         1 R85      -0.678000
     35 C4          -0.6180    50.2920   -17.2860 ca         1 R85      -0.043000
     36 N1          -3.1220    47.7100   -18.0920 nc         1 R85      -0.539800
     37 N           -3.6160    48.7990   -18.6700 na         1 R85       0.107400
     38 C           -4.8780    48.7470   -19.3630 c3         1 R85       0.047600
     39 H1          -3.1090    50.8470   -18.8600 h4         1 R85       0.170000
     40 H2          -1.4020    47.3920   -16.9570 h4         1 R85       0.046100
     41 H3           1.6900    50.8040   -14.8590 ha         1 R85       0.137000
     42 H4          -2.3080    50.2780   -15.1430 h1         1 R85       0.041700
     43 H5          -2.4450    48.5430   -14.9550 h1         1 R85       0.041700
     44 H6          -1.4200    50.4710   -12.8260 hc         1 R85       0.053950
     45 H7          -3.0210    49.7640   -12.8820 hc         1 R85       0.053950
     46 H8          -2.2420    47.5590   -12.5270 h1         1 R85       0.057700
     47 H9          -0.4970    46.9550   -13.8030 hc         1 R85       0.053950
     48 H10          0.5100    47.3910   -12.4480 hc         1 R85       0.053950
     49 H11          1.3480    48.4430   -14.4900 h1         1 R85       0.041700
     50 H12          0.7880    49.6810   -13.3800 h1         1 R85       0.041700
     51 H13         -2.2780    48.6010    -9.1860 h1         1 R85       0.029200
     52 H14         -2.9010    49.6880   -10.4290 h1         1 R85       0.029200
     53 H15         -3.2150    47.9500   -10.5290 h1         1 R85       0.029200
     54 H16         -0.0420    49.3220    -9.5290 h1         1 R85       0.029200
     55 H17          0.7380    49.1570   -11.0910 h1         1 R85       0.029200
     56 H18         -0.4470    50.4440   -10.8260 h1         1 R85       0.029200
     57 H19          2.5250    54.9960   -22.5180 h4         1 R85       0.032100
     58 H20         -0.1790    47.4830   -20.4110 ha         1 R85       0.141000
     59 H21         -0.3630    51.5690   -23.8290 hn         1 R85       0.497800
     60 H22         -5.1620    50.2170   -23.3490 hc         1 R85       0.080367
     61 H23         -5.0470    51.1270   -24.8580 hc         1 R85       0.080367
     62 H24         -4.3690    49.4950   -24.7670 hc         1 R85       0.080367
     63 H25         -2.4810    53.0130   -22.2660 hc         1 R85       0.080367
     64 H26         -3.9630    53.2730   -23.2010 hc         1 R85       0.080367
     65 H27         -3.9760    52.1840   -21.8000 hc         1 R85       0.080367
     66 H28         -3.7380    48.5990   -22.4800 ha         1 R85       0.119000
     67 H29         -2.5370    47.0310   -21.0290 ha         1 R85       0.141000
     68 H30          0.9660    49.4760   -21.2700 ha         1 R85       0.156000
     69 H31          2.1860    53.5840   -18.4550 hn         1 R85       0.470800
     70 H32         -0.6080    51.3010   -19.1620 ha         1 R85       0.162000
     71 H33          4.3560    53.0910   -15.4240 h1         1 R85       0.041367
     72 H34          2.8880    52.7230   -14.5000 h1         1 R85       0.041367
     73 H35          3.8770    51.4040   -15.1680 h1         1 R85       0.041367
     74 H37         -4.9100    47.8710   -20.0060 h1         1 R85       0.052033
     75 H38         -5.7090    48.7020   -18.6600 h1         1 R85       0.052033
     76 H39         -4.9840    49.6370   -19.9780 h1         1 R85       0.052033
     77 N4           1.5710    52.8960   -18.8630 nu         1 R85      -0.721300
     78 N3          -1.2390    48.4520   -10.9890 n3         1 R85      -0.725600
     79 C15         -2.4630    48.6940   -10.2580 c3         1 R85       0.157100
     80 C16         -0.2090    49.3930   -10.6050 c3         1 R85       0.157100
@<TRIPOS>BOND
     1     1     2 2   
     2     1    37 1   
     3     1    39 1   
     4     2     3 1   
     5     2    35 1   
     6     3    36 2   
     7     3    40 1   
     8     4    15 ar  
     9     4    29 ar  
    10     5     6 ar  
    11     5    30 ar  
    12     5    32 1   
    13     6     7 ar  
    14     6    41 1   
    15     7    34 1   
    16     7    35 ar  
    17     8     9 1   
    18     8    34 1   
    19     8    42 1   
    20     8    43 1   
    21     9    10 1   
    22     9    44 1   
    23     9    45 1   
    24    10    11 1   
    25    10    46 1   
    26    10    78 1   
    27    11    12 1   
    28    11    47 1   
    29    11    48 1   
    30    12    34 1   
    31    12    49 1   
    32    12    50 1   
    33    13    14 ar  
    34    13    20 ar  
    35    13    57 1   
    36    14    15 ar  
    37    14    19 1   
    38    15    21 1   
    39    16    18 ar  
    40    16    21 1   
    41    16    28 ar  
    42    17    27 ar  
    43    17    28 ar  
    44    17    58 1   
    45    18    22 1   
    46    18    26 ar  
    47    20    29 ar  
    48    21    59 1   
    49    22    23 1   
    50    22    24 1   
    51    22    25 2   
    52    23    60 1   
    53    23    61 1   
    54    23    62 1   
    55    24    63 1   
    56    24    64 1   
    57    24    65 1   
    58    26    27 ar  
    59    26    66 1   
    60    27    67 1   
    61    28    68 1   
    62    29    77 1   
    63    30    31 ar  
    64    30    77 1   
    65    31    35 ar  
    66    31    70 1   
    67    32    33 1   
    68    33    71 1   
    69    33    72 1   
    70    33    73 1   
    71    36    37 1   
    72    37    38 1   
    73    38    74 1   
    74    38    75 1   
    75    38    76 1   
    76    51    79 1   
    77    52    79 1   
    78    53    79 1   
    79    54    80 1   
    80    55    80 1   
    81    56    80 1   
    82    69    77 1   
    83    78    79 1   
    84    78    80 1   
@<TRIPOS>SUBSTRUCTURE
     1 R85         1 TEMP              0 ****  ****    0 ROOT
