@<TRIPOS>MOLECULE
R86
   72    75     1     0     0
SMALL
bcc


@<TRIPOS>ATOM
      1 C48          5.4070     3.3710    10.9790 c3         1 R86       0.125700
      2 O47          5.1280     2.0000    10.7840 os         1 R86      -0.319900
      3 C44          4.4660     1.6340     9.6660 ca         1 R86       0.138100
      4 C45          4.0630     2.5140     8.6660 ca         1 R86      -0.186000
      5 C46          3.3840     2.0270     7.5540 ca         1 R86      -0.085500
      6 C43          4.1840     0.2730     9.5300 ca         1 R86      -0.186000
      7 C42          3.5080    -0.1890     8.4160 ca         1 R86      -0.085500
      8 C41          3.0920     0.6790     7.4040 ca         1 R86      -0.118300
      9 C38          2.3330     0.1730     6.2130 c3         1 R86      -0.046100
     10 C37          0.8840    -0.1790     6.5570 c3         1 R86       0.103000
     11 N35          0.1360    -0.6150     5.3990 ns         1 R86      -0.570900
     12 C33          0.1700    -1.8710     4.9290 c          1 R86       0.665100
     13 O34          0.7930    -2.7730     5.4760 o          1 R86      -0.600100
     14 C32         -0.6130    -2.1130     3.6580 c3         1 R86      -0.175400
     15 C25          0.2820    -2.7110     2.5630 c6         1 R86       0.105700
     16 C26          1.4440    -1.8020     2.1870 c6         1 R86       0.209800
     17 N24         -0.4950    -3.0230     1.3670 n          1 R86      -0.489800
     18 C27         -1.1710    -4.1960     1.3180 c          1 R86       0.669100
     19 O28         -1.1760    -4.9600     2.2750 o          1 R86      -0.585100
     20 C29         -1.9700    -4.5170     0.0630 c3         1 R86      -0.134700
     21 C31         -2.0930    -6.0230    -0.1290 c3         1 R86      -0.084100
     22 C30         -3.3530    -3.8680     0.1820 c3         1 R86      -0.084100
     23 C23         -0.3810    -2.0900     0.2590 c6         1 R86       0.096000
     24 C22         -0.2010    -0.6640     0.7450 c6         1 R86       0.212800
     25 N21          0.9570    -0.5620     1.6140 nh         1 R86      -0.781300
     26 C13          1.5320     0.6240     1.8770 ca         1 R86       0.748200
     27 N12          2.6620     0.6210     2.5920 nb         1 R86      -0.817000
     28 C14          0.9900     1.8460     1.4250 ca         1 R86      -0.466600
     29 C15          1.6650     3.0000     1.7520 ca         1 R86       0.512600
     30 C17          1.1690     4.3430     1.3280 c3         1 R86      -0.153400
     31 N16          2.7960     2.9810     2.4750 nb         1 R86      -0.775000
     32 C11          3.2080     1.7890     2.8450 ca         1 R86       0.811500
     33 N3           4.3840     1.7550     3.6070 na         1 R86      -0.243700
     34 C4           5.0420     0.6340     4.0580 cc         1 R86      -0.224600
     35 C5           6.1100     1.1010     4.7540 cd         1 R86       0.298200
     36 NFE          6.1280     2.4740     4.7440 nd         1 R86      -0.670000
     37 C2           5.0880     2.8350     4.0540 cc         1 R86       0.428400
     38 H481         6.0650     3.7700    10.2030 h1         1 R86       0.039367
     39 H482         5.9130     3.4510    11.9390 h1         1 R86       0.039367
     40 H483         4.4960     3.9740    11.0100 h1         1 R86       0.039367
     41 H45          4.2680     3.5740     8.7310 ha         1 R86       0.139500
     42 H46          3.0830     2.7270     6.7830 ha         1 R86       0.131000
     43 H43          4.5000    -0.4170    10.3030 ha         1 R86       0.139500
     44 H42          3.3030    -1.2500     8.3310 ha         1 R86       0.131000
     45 H381         2.8220    -0.7090     5.7950 hc         1 R86       0.053200
     46 H382         2.3300     0.9310     5.4300 hc         1 R86       0.053200
     47 H371         0.8510    -0.9590     7.3190 h1         1 R86       0.057200
     48 H372         0.3760     0.6940     6.9690 h1         1 R86       0.057200
     49 HN35        -0.3600     0.0840     4.8730 hn         1 R86       0.309500
     50 H321        -1.4040    -2.8310     3.8830 hc         1 R86       0.069700
     51 H322        -1.1040    -1.2040     3.3080 hc         1 R86       0.069700
     52 H25          0.7170    -3.6360     2.9460 h1         1 R86       0.108700
     53 H261         2.0400    -1.5800     3.0700 h1         1 R86       0.078200
     54 H262         2.1050    -2.3240     1.4880 h1         1 R86       0.078200
     55 H29         -1.4670    -4.1110    -0.8170 hc         1 R86       0.052700
     56 H311        -2.6280    -6.4910     0.6960 hc         1 R86       0.043367
     57 H312        -1.1170    -6.5020    -0.2160 hc         1 R86       0.043367
     58 H313        -2.6440    -6.2310    -1.0460 hc         1 R86       0.043367
     59 H301        -3.3000    -2.7860     0.3050 hc         1 R86       0.043367
     60 H302        -3.8940    -4.2720     1.0400 hc         1 R86       0.043367
     61 H303        -3.9430    -4.0710    -0.7120 hc         1 R86       0.043367
     62 H231        -1.2820    -2.0990    -0.3490 h1         1 R86       0.055200
     63 H232         0.4530    -2.3580    -0.3970 h1         1 R86       0.055200
     64 H221        -0.0710    -0.0360    -0.1380 h1         1 R86       0.053200
     65 H222        -1.1100    -0.3240     1.2540 h1         1 R86       0.053200
     66 H14          0.0760     1.8960     0.8530 ha         1 R86       0.151000
     67 H171         1.9610     4.9000     0.8270 hc         1 R86       0.059033
     68 H172         0.3170     4.2680     0.6570 hc         1 R86       0.059033
     69 H173         0.8680     4.9260     2.2000 hc         1 R86       0.059033
     70 H4           4.6900    -0.3600     3.8510 h4         1 R86       0.191000
     71 H5           6.8660     0.5260     5.2650 h4         1 R86       0.042100
     72 H2           4.7830     3.8450     3.8370 h5         1 R86       0.072100
@<TRIPOS>BOND
     1     1     2 1   
     2     1    38 1   
     3     1    39 1   
     4     1    40 1   
     5     2     3 1   
     6     3     4 ar  
     7     3     6 ar  
     8     4     5 ar  
     9     4    41 1   
    10     5     8 ar  
    11     5    42 1   
    12     6     7 ar  
    13     6    43 1   
    14     7     8 ar  
    15     7    44 1   
    16     8     9 1   
    17     9    10 1   
    18     9    45 1   
    19     9    46 1   
    20    10    11 1   
    21    10    47 1   
    22    10    48 1   
    23    11    12 1   
    24    11    49 1   
    25    12    13 2   
    26    12    14 1   
    27    14    15 1   
    28    14    50 1   
    29    14    51 1   
    30    15    16 1   
    31    15    17 1   
    32    15    52 1   
    33    16    25 1   
    34    16    53 1   
    35    16    54 1   
    36    17    18 1   
    37    17    23 1   
    38    18    19 2   
    39    18    20 1   
    40    20    21 1   
    41    20    22 1   
    42    20    55 1   
    43    21    56 1   
    44    21    57 1   
    45    21    58 1   
    46    22    59 1   
    47    22    60 1   
    48    22    61 1   
    49    23    24 1   
    50    23    62 1   
    51    23    63 1   
    52    24    25 1   
    53    24    64 1   
    54    24    65 1   
    55    25    26 1   
    56    26    27 ar  
    57    26    28 ar  
    58    27    32 ar  
    59    28    29 ar  
    60    28    66 1   
    61    29    30 1   
    62    29    31 ar  
    63    30    67 1   
    64    30    68 1   
    65    30    69 1   
    66    31    32 ar  
    67    32    33 1   
    68    33    34 1   
    69    33    37 1   
    70    34    35 2   
    71    34    70 1   
    72    35    36 1   
    73    35    71 1   
    74    36    37 2   
    75    37    72 1   
@<TRIPOS>SUBSTRUCTURE
     1 R86         1 TEMP              0 ****  ****    0 ROOT
