@<TRIPOS>MOLECULE
R86
   72    75     1     0     0
SMALL
No Charge or Current Charge


@<TRIPOS>ATOM
      1 C48          5.7250     3.9140    10.1740 c3         1 R86       0.148900
      2 O47          5.1750     2.5840    10.2130 os         1 R86      -0.343100
      3 C44          4.3760     2.0890     9.2030 ca         1 R86       0.138100
      4 C45          4.0360     2.8450     8.0600 ca         1 R86      -0.168000
      5 C46          3.2190     2.2840     7.0630 ca         1 R86      -0.067500
      6 C43          3.8940     0.7770     9.3310 ca         1 R86      -0.168000
      7 C42          3.0790     0.2160     8.3340 ca         1 R86      -0.067500
      8 C41          2.7310     0.9690     7.1960 ca         1 R86      -0.118300
      9 C38          1.8700     0.3580     6.0990 c3         1 R86      -0.046100
     10 C37          0.4670    -0.0730     6.5660 c3         1 R86       0.103000
     11 N35         -0.2790    -0.6880     5.4650 ns         1 R86      -0.503900
     12 C33         -0.1970    -2.0160     5.1110 c          1 R86       0.598100
     13 O34          0.4030    -2.8390     5.7850 o          1 R86      -0.600100
     14 C32         -0.9180    -2.3890     3.8190 c3         1 R86      -0.175400
     15 C25          0.0550    -2.8620     2.6950 c6         1 R86       0.105700
     16 C26          1.2910    -1.9230     2.5040 c6         1 R86       0.209800
     17 N24         -0.6790    -3.0660     1.4090 n          1 R86      -0.422800
     18 C27         -1.1990    -4.3380     1.0580 c          1 R86       0.602100
     19 O28         -1.1560    -5.2590     1.8660 o          1 R86      -0.585100
     20 C29         -1.8990    -4.5390    -0.3160 c3         1 R86      -0.134700
     21 C31         -1.5690    -5.9140    -0.9460 c3         1 R86      -0.084100
     22 C30         -3.4250    -4.3350    -0.1660 c3         1 R86      -0.084100
     23 C23         -0.6610    -1.8980     0.4680 c6         1 R86       0.096000
     24 C22         -0.2870    -0.5220     1.1030 c6         1 R86       0.212800
     25 N21          0.9140    -0.5690     1.9910 nh         1 R86      -0.781300
     26 C13          1.6430     0.5930     2.3290 ca         1 R86       0.419900
     27 N12          2.8860     0.4220     2.8130 nb         1 R86      -0.291000
     28 C14          1.0910     1.8700     2.2040 ca         1 R86      -0.318000
     29 C15          1.8820     2.9500     2.5980 ca         1 R86       0.184300
     30 C17          1.3760     4.3770     2.5180 c3         1 R86      -0.153400
     31 N16          3.1190     2.7660     3.0900 nb         1 R86      -0.249000
     32 C11          3.6050     1.5060     3.1940 ca         1 R86       0.285500
     33 N3           4.8750     1.3180     3.7380 na         1 R86      -0.193000
     34 C4           5.2660     0.2340     4.4900 cc         1 R86      -0.192000
     35 C5           6.5530     0.5430     4.8570 cd         1 R86       0.232900
     36 NFE          6.9360     1.7780     4.3510 nd         1 R86      -0.670000
     37 C2           5.8890     2.2410     3.6760 cc         1 R86       0.428400
     38 H481         6.3720     4.0420     9.2970 h1         1 R86       0.039367
     39 H482         6.3270     4.1020    11.0710 h1         1 R86       0.039367
     40 H483         4.9260     4.6650    10.1370 h1         1 R86       0.039367
     41 H45          4.3950     3.8610     7.9280 ha         1 R86       0.121500
     42 H46          2.9680     2.8750     6.1850 ha         1 R86       0.113000
     43 H43          4.1580     0.1890    10.2070 ha         1 R86       0.121500
     44 H42          2.7240    -0.8070     8.4430 ha         1 R86       0.113000
     45 H381         2.3860    -0.5120     5.6760 hc         1 R86       0.053200
     46 H382         1.7420     1.0740     5.2810 hc         1 R86       0.053200
     47 H371         0.5470    -0.7880     7.3960 h1         1 R86       0.057200
     48 H372        -0.0860     0.8040     6.9250 h1         1 R86       0.057200
     49 HN35        -0.7970    -0.0830     4.8400 hn         1 R86       0.309500
     50 H321        -1.6120    -3.2060     4.0460 hc         1 R86       0.069700
     51 H322        -1.5070    -1.5330     3.4740 hc         1 R86       0.069700
     52 H25          0.4710    -3.8270     3.0250 h1         1 R86       0.108700
     53 H261         1.8290    -1.8470     3.4610 h1         1 R86       0.078200
     54 H262         1.9870    -2.4000     1.7980 h1         1 R86       0.078200
     55 H29         -1.5650    -3.7660    -1.0150 hc         1 R86       0.052700
     56 H311        -1.9440    -6.7360    -0.3230 hc         1 R86       0.043367
     57 H312        -0.4840    -6.0360    -1.0590 hc         1 R86       0.043367
     58 H313        -2.0250    -6.0040    -1.9400 hc         1 R86       0.043367
     59 H301        -3.6460    -3.3420     0.2430 hc         1 R86       0.043367
     60 H302        -3.8550    -5.0860     0.5090 hc         1 R86       0.043367
     61 H303        -3.9260    -4.4210    -1.1380 hc         1 R86       0.043367
     62 H231        -1.6480    -1.7890    -0.0010 h1         1 R86       0.055200
     63 H232         0.0610    -2.1140    -0.3320 h1         1 R86       0.055200
     64 H221        -0.1210     0.1920     0.2830 h1         1 R86       0.053200
     65 H222        -1.1500    -0.1550     1.6760 h1         1 R86       0.053200
     66 H14          0.0840     2.0270     1.8330 ha         1 R86       0.133000
     67 H171         2.1850     5.0750     2.2740 hc         1 R86       0.059033
     68 H172         0.6040     4.4820     1.7470 hc         1 R86       0.059033
     69 H173         0.9400     4.6880     3.4750 hc         1 R86       0.059033
     70 H4           4.6440    -0.6260     4.7040 h4         1 R86       0.173000
     71 H5           7.2260    -0.0550     5.4610 h4         1 R86       0.042100
     72 H2           5.8120     3.1850     3.1470 h5         1 R86       0.072100
@<TRIPOS>BOND
     1     1     2 1   
     2     1    38 1   
     3     1    39 1   
     4     1    40 1   
     5     2     3 1   
     6     3     4 ar  
     7     3     6 ar  
     8     4     5 ar  
     9     4    41 1   
    10     5     8 ar  
    11     5    42 1   
    12     6     7 ar  
    13     6    43 1   
    14     7     8 ar  
    15     7    44 1   
    16     8     9 1   
    17     9    10 1   
    18     9    45 1   
    19     9    46 1   
    20    10    11 1   
    21    10    47 1   
    22    10    48 1   
    23    11    12 1   
    24    11    49 1   
    25    12    13 2   
    26    12    14 1   
    27    14    15 1   
    28    14    50 1   
    29    14    51 1   
    30    15    16 1   
    31    15    17 1   
    32    15    52 1   
    33    16    25 1   
    34    16    53 1   
    35    16    54 1   
    36    17    18 1   
    37    17    23 1   
    38    18    19 2   
    39    18    20 1   
    40    20    21 1   
    41    20    22 1   
    42    20    55 1   
    43    21    56 1   
    44    21    57 1   
    45    21    58 1   
    46    22    59 1   
    47    22    60 1   
    48    22    61 1   
    49    23    24 1   
    50    23    62 1   
    51    23    63 1   
    52    24    25 1   
    53    24    64 1   
    54    24    65 1   
    55    25    26 1   
    56    26    27 ar  
    57    26    28 ar  
    58    27    32 ar  
    59    28    29 ar  
    60    28    66 1   
    61    29    30 1   
    62    29    31 ar  
    63    30    67 1   
    64    30    68 1   
    65    30    69 1   
    66    31    32 ar  
    67    32    33 1   
    68    33    34 1   
    69    33    37 1   
    70    34    35 2   
    71    34    70 1   
    72    35    36 1   
    73    35    71 1   
    74    36    37 2   
    75    37    72 1   
@<TRIPOS>SUBSTRUCTURE
     1 R86         1 TEMP              0 ****  ****    0 ROOT
