@<TRIPOS>MOLECULE
R87
   43    46     1     0     0
SMALL
No Charge or Current Charge


@<TRIPOS>ATOM
      1 N1         -16.8420     3.8620    26.8640 nb         1 R87      -0.645000
      2 C4         -22.2230     4.7780    31.5480 ca         1 R87       0.170100
      3 C5         -22.0510     4.3990    32.8890 ca         1 R87      -0.139000
      4 C6         -21.8350     3.0520    33.2240 ca         1 R87      -0.056000
      5 C7         -21.7990     2.0820    32.2120 ca         1 R87       0.084000
      6 C8         -21.9850     2.4530    30.8700 ca         1 R87      -0.045000
      7 C10        -21.0830     3.8590    28.2710 c          1 R87       0.607100
      8 C13        -16.3910     5.0210    26.3330 ca         1 R87       0.355900
      9 C15        -16.6270     7.3860    25.7530 ca         1 R87      -0.128000
     10 C17        -18.6910     8.5590    26.2810 ca         1 R87      -0.129000
     11 C16        -17.3980     8.5570    25.7400 ca         1 R87       0.169000
     12 C18        -19.2230     7.3840    26.8440 ca         1 R87      -0.059000
     13 C19        -18.4540     6.1960    26.8680 ca         1 R87      -0.019000
     14 C14        -17.1530     6.2050    26.3150 ca         1 R87      -0.069000
     15 C12        -18.0870     3.8520    27.3920 ca         1 R87       0.310900
     16 C11        -18.9400     4.9840    27.4180 ca         1 R87      -0.068000
     17 N          -20.2370     4.9330    28.0100 ns         1 R87      -0.154000
     18 O2         -20.8210     2.7260    27.8720 o          1 R87      -0.576100
     19 C1         -22.4430     4.1820    29.0310 c6         1 R87       0.167300
     20 O          -23.4950     3.2850    28.5410 os         1 R87      -0.487000
     21 C          -24.7880     3.2530    29.1950 c3         1 R87       0.151900
     22 C9         -22.2040     3.8060    30.5170 ca         1 R87      -0.186300
     23 O1         -22.4300     6.1100    31.2790 os         1 R87      -0.345100
     24 C3         -22.1950     6.5970    29.9500 c6         1 R87       0.160600
     25 C2         -22.8890     5.6850    28.9160 c6         1 R87      -0.129400
     26 H1         -22.0790     5.1550    33.6690 ha         1 R87       0.136000
     27 H2         -21.6970     2.7610    34.2630 ha         1 R87       0.134000
     28 H3         -21.9710     1.6800    30.1050 ha         1 R87       0.134000
     29 H4         -15.3860     4.9980    25.9140 h4         1 R87       0.025100
     30 H5         -15.6260     7.3980    25.3270 ha         1 R87       0.138000
     31 H6         -19.2820     9.4710    26.2630 ha         1 R87       0.134000
     32 H7         -20.2310     7.4150    27.2480 ha         1 R87       0.124000
     33 H8         -18.3870     2.9040    27.8330 h4         1 R87       0.026100
     34 H9         -20.5900     5.8290    28.3100 hn         1 R87       0.184000
     35 H10        -25.3880     2.4260    28.7950 h1         1 R87       0.042033
     36 H11        -24.6930     3.0980    30.2770 h1         1 R87       0.042033
     37 H12        -25.3540     4.1760    29.0230 h1         1 R87       0.042033
     38 H13        -21.1110     6.6430    29.7830 h1         1 R87       0.074700
     39 H14        -22.5860     7.6220    29.8740 h1         1 R87       0.074700
     40 H15        -22.7180     6.0620    27.8980 hc         1 R87       0.066700
     41 H16        -23.9670     5.7900    29.0800 hc         1 R87       0.066700
     42 F          -16.8930     9.6880    25.2010 f          1 R87      -0.179000
     43 Cl         -21.5340     0.3930    32.6260 cl         1 R87      -0.210000
@<TRIPOS>BOND
     1     1     8 ar  
     2     1    15 ar  
     3     2     3 ar  
     4     2    22 ar  
     5     2    23 1   
     6     3     4 ar  
     7     3    26 1   
     8     4     5 ar  
     9     4    27 1   
    10     5     6 ar  
    11     5    43 1   
    12     6    22 ar  
    13     6    28 1   
    14     7    17 1   
    15     7    18 2   
    16     7    19 1   
    17     8    14 ar  
    18     8    29 1   
    19     9    11 ar  
    20     9    14 ar  
    21     9    30 1   
    22    10    11 ar  
    23    10    12 ar  
    24    10    31 1   
    25    11    42 1   
    26    12    13 ar  
    27    12    32 1   
    28    13    14 ar  
    29    13    16 ar  
    30    15    16 ar  
    31    15    33 1   
    32    16    17 1   
    33    17    34 1   
    34    19    20 1   
    35    19    22 1   
    36    19    25 1   
    37    20    21 1   
    38    21    35 1   
    39    21    36 1   
    40    21    37 1   
    41    23    24 1   
    42    24    25 1   
    43    24    38 1   
    44    24    39 1   
    45    25    40 1   
    46    25    41 1   
@<TRIPOS>SUBSTRUCTURE
     1 R87         1 TEMP              0 ****  ****    0 ROOT
