@<TRIPOS>MOLECULE
R87
   43    46     1     0     0
SMALL
abcg2


@<TRIPOS>ATOM
      1 N1         -17.3630     3.4420    26.0030 nb         1 R87      -0.645000
      2 C4         -22.3750     4.6860    31.9040 ca         1 R87       0.170100
      3 C5         -22.3900     3.9600    33.0980 ca         1 R87      -0.139000
      4 C6         -22.1520     2.5970    33.0960 ca         1 R87      -0.056000
      5 C7         -21.8920     1.9580    31.8880 ca         1 R87       0.084000
      6 C8         -21.8800     2.6610    30.6990 ca         1 R87      -0.045000
      7 C10        -20.6920     4.9530    28.8780 c          1 R87       0.607100
      8 C13        -16.7680     4.5820    25.7370 ca         1 R87       0.355900
      9 C15        -16.6540     7.0510    25.7150 ca         1 R87      -0.128000
     10 C17        -18.5300     8.3060    26.6220 ca         1 R87      -0.129000
     11 C16        -17.2670     8.2310    26.0110 ca         1 R87       0.169000
     12 C18        -19.1850     7.1480    26.9500 ca         1 R87      -0.059000
     13 C19        -18.5970     5.8910    26.6740 ca         1 R87      -0.019000
     14 C14        -17.3230     5.8490    26.0410 ca         1 R87      -0.069000
     15 C12        -18.5690     3.4810    26.6210 ca         1 R87       0.310900
     16 C11        -19.2060     4.6450    26.9700 ca         1 R87      -0.068000
     17 N          -20.4760     4.5850    27.5970 ns         1 R87      -0.154000
     18 O2         -19.8280     5.4190    29.6100 o          1 R87      -0.576100
     19 C1         -22.1470     4.7850    29.3720 c6         1 R87       0.167300
     20 O          -22.8290     4.0460    28.3610 os         1 R87      -0.487000
     21 C          -24.2090     3.7550    28.5690 c3         1 R87       0.151900
     22 C9         -22.1300     4.0330    30.6920 ca         1 R87      -0.186300
     23 O1         -22.6320     6.0160    31.9990 os         1 R87      -0.345100
     24 C3         -22.2950     6.8250    30.8550 c6         1 R87       0.160600
     25 C2         -22.7640     6.1830    29.5680 c6         1 R87      -0.129400
     26 H1         -22.5890     4.4820    34.0250 ha         1 R87       0.136000
     27 H2         -22.1630     2.0380    34.0210 ha         1 R87       0.134000
     28 H3         -21.6940     2.1510    29.7640 ha         1 R87       0.134000
     29 H4         -15.7970     4.5380    25.2520 h4         1 R87       0.025100
     30 H5         -15.6840     7.0300    25.2350 ha         1 R87       0.138000
     31 H6         -18.9640     9.2770    26.8210 ha         1 R87       0.134000
     32 H7         -20.1590     7.1960    27.4160 ha         1 R87       0.124000
     33 H8         -19.0350     2.5280    26.8420 h4         1 R87       0.026100
     34 H9         -21.2360     4.1100    27.1300 hn         1 R87       0.184000
     35 H10        -24.4730     3.0100    27.8210 h1         1 R87       0.042033
     36 H11        -24.3840     3.3420    29.5650 h1         1 R87       0.042033
     37 H12        -24.8330     4.6390    28.4280 h1         1 R87       0.042033
     38 H13        -21.2150     6.9810    30.8490 h1         1 R87       0.074700
     39 H14        -22.7960     7.7760    31.0190 h1         1 R87       0.074700
     40 H15        -22.5180     6.8230    28.7200 hc         1 R87       0.066700
     41 H16        -23.8490     6.0790    29.6060 hc         1 R87       0.066700
     42 F          -16.6510     9.3980    25.7030 f          1 R87      -0.179000
     43 CL         -21.5810     0.2310    31.8750 cl         1 R87      -0.210000
@<TRIPOS>BOND
     1     1     8 ar  
     2     1    15 ar  
     3     2     3 ar  
     4     2    22 ar  
     5     2    23 1   
     6     3     4 ar  
     7     3    26 1   
     8     4     5 ar  
     9     4    27 1   
    10     5     6 ar  
    11     5    43 1   
    12     6    22 ar  
    13     6    28 1   
    14     7    17 1   
    15     7    18 2   
    16     7    19 1   
    17     8    14 ar  
    18     8    29 1   
    19     9    11 ar  
    20     9    14 ar  
    21     9    30 1   
    22    10    11 ar  
    23    10    12 ar  
    24    10    31 1   
    25    11    42 1   
    26    12    13 ar  
    27    12    32 1   
    28    13    14 ar  
    29    13    16 ar  
    30    15    16 ar  
    31    15    33 1   
    32    16    17 1   
    33    17    34 1   
    34    19    20 1   
    35    19    22 1   
    36    19    25 1   
    37    20    21 1   
    38    21    35 1   
    39    21    36 1   
    40    21    37 1   
    41    23    24 1   
    42    24    25 1   
    43    24    38 1   
    44    24    39 1   
    45    25    40 1   
    46    25    41 1   
@<TRIPOS>SUBSTRUCTURE
     1 R87         1 TEMP              0 ****  ****    0 ROOT
