@<TRIPOS>MOLECULE
R8A
   17    17     1     0     0
SMALL
abcg2


@<TRIPOS>ATOM
      1 C4          27.5290     2.2550    61.4640 ca         1 R8A       0.379900
      2 C5          27.4270     5.1450    58.3800 c3         1 R8A       0.223900
      3 N1          29.7030     3.5420    59.0140 nv         1 R8A      -1.050900
      4 O           26.1900     5.8010    58.3050 oh         1 R8A      -0.657000
      5 C2          27.4000     4.1180    59.4740 ca         1 R8A      -0.196300
      6 C1          26.2960     3.8940    60.2700 ca         1 R8A      -0.015000
      7 C3          28.5540     3.3440    59.7340 ca         1 R8A       0.587900
      8 N           28.6060     2.4410    60.7060 nb         1 R8A      -0.744000
      9 C           26.3480     2.9460    61.2910 ca         1 R8A      -0.217000
     10 H1          27.6210     1.5110    62.2480 h4         1 R8A       0.015100
     11 H2          27.6740     4.6540    57.4260 h1         1 R8A       0.020700
     12 H3          28.2490     5.8490    58.5780 h1         1 R8A       0.020700
     13 H4          30.4010     2.8240    59.1260 hn         1 R8A       0.463500
     14 H5          29.6190     3.8600    58.0630 hn         1 R8A       0.463500
     15 H6          26.2400     6.4520    57.5990 ho         1 R8A       0.447000
     16 H7          25.3890     4.4620    60.1090 ha         1 R8A       0.134000
     17 H8          25.4950     2.7550    61.9270 ha         1 R8A       0.125000
@<TRIPOS>BOND
     1     1     8 ar  
     2     1     9 ar  
     3     1    10 1   
     4     2     4 1   
     5     2     5 1   
     6     2    11 1   
     7     2    12 1   
     8     3     7 1   
     9     3    13 1   
    10     3    14 1   
    11     4    15 1   
    12     5     6 ar  
    13     5     7 ar  
    14     6     9 ar  
    15     6    16 1   
    16     7     8 ar  
    17     9    17 1   
@<TRIPOS>SUBSTRUCTURE
     1 R8A         1 TEMP              0 ****  ****    0 ROOT
