@<TRIPOS>MOLECULE
R8A
   17    17     1     0     0
SMALL
No Charge or Current Charge


@<TRIPOS>ATOM
      1 C4          27.5990     2.2910    61.4950 ca         1 R8A       0.379900
      2 C5          27.2810     5.0530    58.2400 c3         1 R8A       0.223900
      3 N1          29.7580     3.6140    59.1790 nv         1 R8A      -1.050900
      4 O           26.6180     6.2550    58.6420 oh         1 R8A      -0.657000
      5 C2          27.3700     4.0790    59.4080 ca         1 R8A      -0.196300
      6 C1          26.2170     3.7560    60.1490 ca         1 R8A      -0.015000
      7 C3          28.5740     3.4530    59.7850 ca         1 R8A       0.587900
      8 N           28.7090     2.5890    60.7830 nb         1 R8A      -0.744000
      9 C           26.3420     2.8470    61.2110 ca         1 R8A      -0.217000
     10 H1          27.7220     1.5830    62.3140 h4         1 R8A       0.015100
     11 H2          26.7270     4.5720    57.4230 h1         1 R8A       0.020700
     12 H3          28.2820     5.2940    57.8590 h1         1 R8A       0.020700
     13 H4          30.4600     2.9320    59.4410 hn         1 R8A       0.463500
     14 H5          29.7640     3.9240    58.2150 hn         1 R8A       0.463500
     15 H6          26.5880     6.8380    57.8510 ho         1 R8A       0.447000
     16 H7          25.2510     4.1990    59.9080 ha         1 R8A       0.134000
     17 H8          25.4790     2.5720    61.8110 ha         1 R8A       0.125000
@<TRIPOS>BOND
     1     1     8 ar  
     2     1     9 ar  
     3     1    10 1   
     4     2     4 1   
     5     2     5 1   
     6     2    11 1   
     7     2    12 1   
     8     3     7 1   
     9     3    13 1   
    10     3    14 1   
    11     4    15 1   
    12     5     6 ar  
    13     5     7 ar  
    14     6     9 ar  
    15     6    16 1   
    16     7     8 ar  
    17     9    17 1   
@<TRIPOS>SUBSTRUCTURE
     1 R8A         1 TEMP              0 ****  ****    0 ROOT
