@<TRIPOS>MOLECULE
R8B
   47    49     1     0     0
SMALL
No Charge or Current Charge


@<TRIPOS>ATOM
      1 O7           5.3030     0.2990     4.9790 o          1 R8B      -0.712000
      2 C17          6.4110    -0.1730     5.1920 c          1 R8B       0.714600
      3 O6           7.4470     0.4340     4.9600 o          1 R8B      -0.712000
      4 C15          6.5050    -1.5740     5.7700 ca         1 R8B      -0.129600
      5 C14          5.3390    -2.3180     6.0540 ca         1 R8B      -0.052000
      6 C13          5.4320    -3.6130     6.5880 ca         1 R8B      -0.152000
      7 C11          6.6910    -4.1830     6.8460 ca         1 R8B      -0.089000
      8 C10          6.7830    -5.4790     7.3800 ca         1 R8B      -0.061000
      9 C9           8.0580    -6.0090     7.6220 ca         1 R8B      -0.194000
     10 C16          7.7660    -2.1620     6.0350 ca         1 R8B      -0.070000
     11 C12          7.8780    -3.4590     6.5700 ca         1 R8B       0.254000
     12 N            9.1040    -3.9840     6.8090 nb         1 R8B      -0.624000
     13 C8           9.1940    -5.2350     7.3250 ca         1 R8B       0.323300
     14 C7          10.6000    -5.7890     7.5750 c3         1 R8B       0.113300
     15 O3          10.8860    -5.7790     8.9910 os         1 R8B      -0.405000
     16 C2          12.1600    -6.3270     9.4180 c6         1 R8B       0.135300
     17 C1          13.3520    -5.4320     8.9380 c6         1 R8B       0.112300
     18 O4          13.1100    -4.0580     9.3150 oh         1 R8B      -0.715000
     19 C3          12.1870    -6.4910    10.9740 c6         1 R8B       0.119300
     20 O2          11.1300    -7.3700    11.4400 oh         1 R8B      -0.697000
     21 C4          13.6030    -6.9960    11.4200 c6         1 R8B       0.359300
     22 O1          13.7090    -7.1630    12.8530 os         1 R8B      -0.448000
     23 C6          13.5670    -5.9910    13.6830 c3         1 R8B       0.144900
     24 O           14.6250    -6.0880    10.9680 os         1 R8B      -0.461000
     25 C           14.6940    -5.9930     9.5220 c6         1 R8B       0.188300
     26 C5          15.9350    -5.1240     9.1270 c3         1 R8B       0.169600
     27 O5          17.1870    -5.6630     9.6030 oh         1 R8B      -0.717000
     28 H2           4.3540    -1.8950     5.8620 ha         1 R8B       0.133000
     29 H3           4.5230    -4.1720     6.8010 ha         1 R8B       0.092000
     30 H4           5.8910    -6.0600     7.6030 ha         1 R8B       0.102000
     31 H5           8.1700    -7.0080     8.0360 ha         1 R8B       0.099000
     32 H6           8.6780    -1.6110     5.8250 ha         1 R8B       0.149000
     33 H7          10.6500    -6.8140     7.1860 h1         1 R8B       0.019700
     34 H8          11.3330    -5.1870     7.0240 h1         1 R8B       0.019700
     35 H9          12.2710    -7.3260     8.9690 h1         1 R8B       0.045700
     36 H10         13.4150    -5.5020     7.8430 h1         1 R8B       0.035700
     37 H11         12.1450    -3.9070     9.1730 ho         1 R8B       0.533000
     38 H12         12.0440    -5.4900    11.4040 h1         1 R8B       0.071700
     39 H13         11.3320    -7.5790    12.3830 ho         1 R8B       0.512000
     40 H14         13.7770    -7.9790    10.9550 h2         1 R8B       0.064700
     41 H15         13.7200    -6.2530    14.7370 h1         1 R8B       0.037033
     42 H16         14.3070    -5.2260    13.4160 h1         1 R8B       0.037033
     43 H17         12.5650    -5.5540    13.5890 h1         1 R8B       0.037033
     44 H18         14.8570    -7.0020     9.1140 h1         1 R8B       0.043700
     45 H19         15.9550    -5.0400     8.0320 h1         1 R8B       0.037700
     46 H20         15.7870    -4.1110     9.5270 h1         1 R8B       0.037700
     47 H21         17.8850    -5.0020     9.3850 ho         1 R8B       0.500000
@<TRIPOS>BOND
     1     1     2 1   
     2     2     3 1   
     3     2     4 1   
     4     4     5 ar  
     5     4    10 ar  
     6     5     6 ar  
     7     5    28 1   
     8     6     7 ar  
     9     6    29 1   
    10     7     8 ar  
    11     7    11 ar  
    12     8     9 ar  
    13     8    30 1   
    14     9    13 ar  
    15     9    31 1   
    16    10    11 ar  
    17    10    32 1   
    18    11    12 ar  
    19    12    13 ar  
    20    13    14 1   
    21    14    15 1   
    22    14    33 1   
    23    14    34 1   
    24    15    16 1   
    25    16    17 1   
    26    16    19 1   
    27    16    35 1   
    28    17    18 1   
    29    17    25 1   
    30    17    36 1   
    31    18    37 1   
    32    19    20 1   
    33    19    21 1   
    34    19    38 1   
    35    20    39 1   
    36    21    22 1   
    37    21    24 1   
    38    21    40 1   
    39    22    23 1   
    40    23    41 1   
    41    23    42 1   
    42    23    43 1   
    43    24    25 1   
    44    25    26 1   
    45    25    44 1   
    46    26    27 1   
    47    26    45 1   
    48    26    46 1   
    49    27    47 1   
@<TRIPOS>SUBSTRUCTURE
     1 R8B         1 TEMP              0 ****  ****    0 ROOT
