@<TRIPOS>MOLECULE
R8B
   47    49     1     0     0
SMALL
bcc


@<TRIPOS>ATOM
      1 O7           4.8260    -0.0060     7.1470 o          1 R8B      -0.817300
      2 C17          5.7890    -0.5560     7.7160 c          1 R8B       0.925200
      3 O6           6.4060    -0.1510     8.7180 o          1 R8B      -0.817300
      4 C15          6.2630    -1.8790     7.1130 ca         1 R8B      -0.129600
      5 C14          5.6070    -2.4280     5.9870 ca         1 R8B      -0.070000
      6 C13          6.0130    -3.6150     5.4410 ca         1 R8B      -0.170000
      7 C11          7.1040    -4.3190     5.9940 ca         1 R8B      -0.154300
      8 C10          7.5730    -5.5510     5.4850 ca         1 R8B      -0.079000
      9 C9           8.6330    -6.1590     6.0860 ca         1 R8B      -0.277300
     10 C16          7.3280    -2.5540     7.6560 ca         1 R8B      -0.153300
     11 C12          7.7730    -3.7790     7.1170 ca         1 R8B       0.384600
     12 N            8.8310    -4.4010     7.6980 nb         1 R8B      -0.624000
     13 C8           9.2400    -5.5350     7.2060 ca         1 R8B       0.388600
     14 C7          10.4090    -6.2450     7.8300 c3         1 R8B       0.090100
     15 O3          10.9220    -5.5220     8.9120 os         1 R8B      -0.358600
     16 C2          12.0170    -6.1430     9.5470 c6         1 R8B       0.112100
     17 C1          13.3190    -5.8750     8.7840 c6         1 R8B       0.089100
     18 O4          13.5090    -4.5000     8.5650 oh         1 R8B      -0.592800
     19 C3          12.1080    -5.6090    10.9680 c6         1 R8B       0.096100
     20 O2          10.9510    -6.0040    11.6600 oh         1 R8B      -0.574800
     21 C4          13.3630    -6.2020    11.6290 c6         1 R8B       0.312900
     22 O1          13.5400    -5.7990    12.9410 os         1 R8B      -0.401600
     23 C6          13.8440    -4.4330    13.1700 c3         1 R8B       0.121700
     24 O           14.5090    -5.8860    10.8910 os         1 R8B      -0.414600
     25 C           14.4910    -6.4240     9.5860 c6         1 R8B       0.165100
     26 C5          15.8240    -6.1400     8.9270 c3         1 R8B       0.146400
     27 O5          16.8250    -6.8610     9.6050 oh         1 R8B      -0.594800
     28 H2           4.7710    -1.8940     5.5580 ha         1 R8B       0.151000
     29 H3           5.5030    -4.0290     4.5790 ha         1 R8B       0.110000
     30 H4           7.0860    -5.9980     4.6270 ha         1 R8B       0.120000
     31 H5           9.0190    -7.1020     5.7200 ha         1 R8B       0.117000
     32 H6           7.8490    -2.1550     8.5170 ha         1 R8B       0.167000
     33 H7          10.0820    -7.2470     8.1480 h1         1 R8B       0.019700
     34 H8          11.1620    -6.4090     7.0460 h1         1 R8B       0.019700
     35 H9          11.8670    -7.2330     9.5940 h1         1 R8B       0.045700
     36 H10         13.2930    -6.4280     7.8330 h1         1 R8B       0.035700
     37 H11         12.6940    -4.1410     8.1970 ho         1 R8B       0.434000
     38 H12         12.1970    -4.5140    10.9230 h1         1 R8B       0.071700
     39 H13         10.9650    -5.6020    12.5340 ho         1 R8B       0.413000
     40 H14         13.2330    -7.2960    11.6830 h2         1 R8B       0.064700
     41 H15         13.8310    -4.2920    14.2490 h1         1 R8B       0.037033
     42 H16         14.8340    -4.1600    12.7990 h1         1 R8B       0.037033
     43 H17         13.1100    -3.7510    12.7340 h1         1 R8B       0.037033
     44 H18         14.3560    -7.5180     9.6330 h1         1 R8B       0.043700
     45 H19         15.7480    -6.4410     7.8740 h1         1 R8B       0.037700
     46 H20         16.0200    -5.0620     8.9410 h1         1 R8B       0.037700
     47 H21         17.6780    -6.5920     9.2510 ho         1 R8B       0.401000
@<TRIPOS>BOND
     1     1     2 1   
     2     2     3 1   
     3     2     4 1   
     4     4     5 ar  
     5     4    10 ar  
     6     5     6 ar  
     7     5    28 1   
     8     6     7 ar  
     9     6    29 1   
    10     7     8 ar  
    11     7    11 ar  
    12     8     9 ar  
    13     8    30 1   
    14     9    13 ar  
    15     9    31 1   
    16    10    11 ar  
    17    10    32 1   
    18    11    12 ar  
    19    12    13 ar  
    20    13    14 1   
    21    14    15 1   
    22    14    33 1   
    23    14    34 1   
    24    15    16 1   
    25    16    17 1   
    26    16    19 1   
    27    16    35 1   
    28    17    18 1   
    29    17    25 1   
    30    17    36 1   
    31    18    37 1   
    32    19    20 1   
    33    19    21 1   
    34    19    38 1   
    35    20    39 1   
    36    21    22 1   
    37    21    24 1   
    38    21    40 1   
    39    22    23 1   
    40    23    41 1   
    41    23    42 1   
    42    23    43 1   
    43    24    25 1   
    44    25    26 1   
    45    25    44 1   
    46    26    27 1   
    47    26    45 1   
    48    26    46 1   
    49    27    47 1   
@<TRIPOS>SUBSTRUCTURE
     1 R8B         1 TEMP              0 ****  ****    0 ROOT
