@<TRIPOS>MOLECULE
R8C
   52    55     1     0     0
SMALL
bcc


@<TRIPOS>ATOM
      1 C1          -2.8330     3.0270    -0.2030 c3         1 R8C      -0.103100
      2 C2          -3.0420     1.5600    -0.5470 c3         1 R8C       0.115700
      3 C4          -1.8780     0.6710    -0.0650 c3         1 R8C       0.185400
      4 C6          -2.1320    -0.7870    -0.3550 ca         1 R8C      -0.135300
      5 C7          -2.6500    -1.6130     0.6350 ca         1 R8C      -0.106000
      6 C8          -2.9490    -2.9410     0.3620 ca         1 R8C      -0.125000
      7 C9          -2.7200    -3.4570    -0.9060 ca         1 R8C      -0.113000
      8 C10         -2.1930    -2.6380    -1.8970 ca         1 R8C      -0.125000
      9 C11         -1.9060    -1.3080    -1.6250 ca         1 R8C      -0.106000
     10 O12         -0.7310     1.1550    -0.7300 os         1 R8C      -0.324900
     11 C13          0.4970     0.7480    -0.3300 ca         1 R8C       0.111100
     12 C14          1.5610     1.2550    -1.1130 ca         1 R8C      -0.118000
     13 C15          2.8730     0.9470    -0.8500 ca         1 R8C      -0.109000
     14 C16          3.1260     0.0960     0.2330 ca         1 R8C      -0.058200
     15 C17          2.0820    -0.3950     1.0250 ca         1 R8C      -0.193900
     16 C18          0.7450    -0.0770     0.7450 ca         1 R8C      -0.141000
     17 C19          2.7350    -1.1600     2.0280 cc         1 R8C       0.352800
     18 N20          4.0310    -1.1380     1.8630 nd         1 R8C      -0.505100
     19 N21          4.2820    -0.3910     0.7790 na         1 R8C       0.169800
     20 C22          5.6090    -0.1710     0.3700 ca         1 R8C       0.015800
     21 C23          6.5960     0.0440     1.3270 ca         1 R8C      -0.106000
     22 C24          7.9090     0.2510     0.9360 ca         1 R8C      -0.158000
     23 C25          8.2110     0.2570    -0.4130 ca         1 R8C       0.131900
     24 C26          7.2480     0.0470    -1.3790 ca         1 R8C      -0.158000
     25 C27          5.9390    -0.1810    -0.9800 ca         1 R8C      -0.106000
     26 F28          9.4800     0.4690    -0.7940 f          1 R8C      -0.139900
     27 N29         -4.2730     1.0860     0.0560 ns         1 R8C      -0.555900
     28 C30         -5.1550     0.3090    -0.5770 c          1 R8C       0.625100
     29 O31         -5.1040    -0.0570    -1.7300 o          1 R8C      -0.527100
     30 C32         -6.3380    -0.1300     0.3090 c3         1 R8C       0.576900
     31 F33         -5.9170    -0.9000     1.3180 f          1 R8C      -0.224633
     32 F34         -6.9660     0.9220     0.8430 f          1 R8C      -0.224633
     33 F35         -7.2180    -0.8220    -0.3980 f          1 R8C      -0.224633
     34 H1          -2.7080     3.1660     0.8720 hc         1 R8C       0.051033
     35 H1A         -1.9490     3.4210    -0.7000 hc         1 R8C       0.051033
     36 H1B         -3.6900     3.6160    -0.5270 hc         1 R8C       0.051033
     37 H2          -3.1400     1.4460    -1.6290 h1         1 R8C       0.097700
     38 H4          -1.7770     0.8150     1.0210 h1         1 R8C       0.046700
     39 H7          -2.8160    -1.2190     1.6310 ha         1 R8C       0.133000
     40 H8          -3.3540    -3.5720     1.1420 ha         1 R8C       0.134500
     41 H9          -2.9470    -4.4930    -1.1210 ha         1 R8C       0.134000
     42 H10         -2.0090    -3.0350    -2.8870 ha         1 R8C       0.134500
     43 H11         -1.5020    -0.6810    -2.4100 ha         1 R8C       0.133000
     44 H14          1.3250     1.9090    -1.9430 ha         1 R8C       0.146000
     45 H15          3.6620     1.3590    -1.4630 ha         1 R8C       0.146000
     46 H18         -0.0410    -0.4790     1.3690 ha         1 R8C       0.148000
     47 H19          2.2940    -1.7130     2.8430 h4         1 R8C       0.052800
     48 H23          6.3430     0.0500     2.3780 ha         1 R8C       0.153000
     49 H24          8.6820     0.4170     1.6740 ha         1 R8C       0.154500
     50 H26          7.5100     0.0430    -2.4290 ha         1 R8C       0.154500
     51 H27          5.1890    -0.3870    -1.7320 ha         1 R8C       0.153000
     52 HN29        -4.4310     1.3400     1.0200 hn         1 R8C       0.327500
@<TRIPOS>BOND
     1     1     2 1   
     2     1    34 1   
     3     1    35 1   
     4     1    36 1   
     5     2     3 1   
     6     2    27 1   
     7     2    37 1   
     8     3     4 1   
     9     3    10 1   
    10     3    38 1   
    11     4     5 ar  
    12     4     9 ar  
    13     5     6 ar  
    14     5    39 1   
    15     6     7 ar  
    16     6    40 1   
    17     7     8 ar  
    18     7    41 1   
    19     8     9 ar  
    20     8    42 1   
    21     9    43 1   
    22    10    11 1   
    23    11    12 ar  
    24    11    16 ar  
    25    12    13 ar  
    26    12    44 1   
    27    13    14 ar  
    28    13    45 1   
    29    14    15 ar  
    30    14    19 1   
    31    15    16 ar  
    32    15    17 1   
    33    16    46 1   
    34    17    18 2   
    35    17    47 1   
    36    18    19 1   
    37    19    20 1   
    38    20    21 ar  
    39    20    25 ar  
    40    21    22 ar  
    41    21    48 1   
    42    22    23 ar  
    43    22    49 1   
    44    23    24 ar  
    45    23    26 1   
    46    24    25 ar  
    47    24    50 1   
    48    25    51 1   
    49    27    28 1   
    50    27    52 1   
    51    28    29 2   
    52    28    30 1   
    53    30    31 1   
    54    30    32 1   
    55    30    33 1   
@<TRIPOS>SUBSTRUCTURE
     1 R8C         1 TEMP              0 ****  ****    0 ROOT
