@<TRIPOS>MOLECULE
R8C
   52    55     1     0     0
SMALL
No Charge or Current Charge


@<TRIPOS>ATOM
      1 C1          -3.0080     3.1180     0.0990 c3         1 R8C      -0.103100
      2 C2          -3.1040     1.6570    -0.3870 c3         1 R8C       0.115700
      3 C4          -1.9100     0.7780     0.0890 c3         1 R8C       0.208600
      4 C6          -2.0920    -0.7000    -0.2770 ca         1 R8C      -0.135300
      5 C7          -2.4500    -1.6330     0.7180 ca         1 R8C      -0.088000
      6 C8          -2.6380    -2.9870     0.3890 ca         1 R8C      -0.107000
      7 C9          -2.4710    -3.4180    -0.9380 ca         1 R8C      -0.095000
      8 C10         -2.1170    -2.4950    -1.9350 ca         1 R8C      -0.107000
      9 C11         -1.9300    -1.1410    -1.6070 ca         1 R8C      -0.088000
     10 O12         -0.7130     1.2880    -0.5370 os         1 R8C      -0.348100
     11 C13          0.5560     0.8580    -0.2010 ca         1 R8C       0.111100
     12 C14          1.6350     1.3170    -0.9990 ca         1 R8C      -0.100000
     13 C15          2.9630     0.9250    -0.7200 ca         1 R8C      -0.091000
     14 C16          3.1650     0.0680     0.3700 ca         1 R8C      -0.058200
     15 C17          2.1390    -0.3690     1.1460 ca         1 R8C      -0.193900
     16 C18          0.8080     0.0000     0.9030 ca         1 R8C      -0.123000
     17 C19          2.7440    -1.2030     2.1600 cc         1 R8C       0.352800
     18 N20          4.0770    -1.2800     2.0220 nd         1 R8C      -0.505100
     19 N21          4.3120    -0.4850     0.9020 na         1 R8C       0.169800
     20 C22          5.5880    -0.2820     0.3780 ca         1 R8C       0.015800
     21 C23          6.5660     0.3940     1.1370 ca         1 R8C      -0.088000
     22 C24          7.8520     0.6020     0.6070 ca         1 R8C      -0.140000
     23 C25          8.1620     0.1350    -0.6800 ca         1 R8C       0.167000
     24 C26          7.1960    -0.5410    -1.4410 ca         1 R8C      -0.140000
     25 C27          5.9080    -0.7500    -0.9130 ca         1 R8C      -0.088000
     26 F28          9.3980     0.3350    -1.1880 f          1 R8C      -0.175000
     27 N29         -4.3960     1.0840     0.0240 ns         1 R8C      -0.488900
     28 C30         -5.2520     0.3790    -0.8070 c          1 R8C       0.558100
     29 O31         -5.0290     0.2570    -2.0060 o          1 R8C      -0.527100
     30 C32         -6.4980    -0.2300    -0.1040 c3         1 R8C       0.213000
     31 F33         -6.1360    -1.1090     0.8610 f          1 R8C      -0.103333
     32 F34         -7.2500     0.7300     0.4850 f          1 R8C      -0.103333
     33 F35         -7.3000    -0.8930    -0.9710 f          1 R8C      -0.103333
     34 H1          -3.0160     3.1670     1.1950 hc         1 R8C       0.051033
     35 H1A         -2.0840     3.5890    -0.2580 hc         1 R8C       0.051033
     36 H1B         -3.8530     3.7050    -0.2790 hc         1 R8C       0.051033
     37 H2          -3.0680     1.6790    -1.4850 h1         1 R8C       0.097700
     38 H4          -1.8380     0.8770     1.1800 h1         1 R8C       0.046700
     39 H7          -2.5880    -1.3110     1.7480 ha         1 R8C       0.115000
     40 H8          -2.9150    -3.7000     1.1610 ha         1 R8C       0.116500
     41 H9          -2.6170    -4.4660    -1.1920 ha         1 R8C       0.116000
     42 H10         -1.9900    -2.8270    -2.9630 ha         1 R8C       0.116500
     43 H11         -1.6620    -0.4340    -2.3890 ha         1 R8C       0.115000
     44 H14          1.4340     1.9790    -1.8370 ha         1 R8C       0.128000
     45 H15          3.7930     1.2770    -1.3290 ha         1 R8C       0.128000
     46 H18          0.0170    -0.3660     1.5500 ha         1 R8C       0.130000
     47 H19          2.2970    -1.7490     2.9800 h4         1 R8C       0.052800
     48 H23          6.3250     0.7560     2.1340 ha         1 R8C       0.135000
     49 H24          8.6070     1.1230     1.1900 ha         1 R8C       0.136500
     50 H26          7.4440    -0.9010    -2.4360 ha         1 R8C       0.136500
     51 H27          5.1600    -1.2760    -1.5030 ha         1 R8C       0.135000
     52 HN29        -4.6610     1.1470     1.0010 hn         1 R8C       0.327500
@<TRIPOS>BOND
     1     1     2 1   
     2     1    34 1   
     3     1    35 1   
     4     1    36 1   
     5     2     3 1   
     6     2    27 1   
     7     2    37 1   
     8     3     4 1   
     9     3    10 1   
    10     3    38 1   
    11     4     5 ar  
    12     4     9 ar  
    13     5     6 ar  
    14     5    39 1   
    15     6     7 ar  
    16     6    40 1   
    17     7     8 ar  
    18     7    41 1   
    19     8     9 ar  
    20     8    42 1   
    21     9    43 1   
    22    10    11 1   
    23    11    12 ar  
    24    11    16 ar  
    25    12    13 ar  
    26    12    44 1   
    27    13    14 ar  
    28    13    45 1   
    29    14    15 ar  
    30    14    19 1   
    31    15    16 ar  
    32    15    17 1   
    33    16    46 1   
    34    17    18 2   
    35    17    47 1   
    36    18    19 1   
    37    19    20 1   
    38    20    21 ar  
    39    20    25 ar  
    40    21    22 ar  
    41    21    48 1   
    42    22    23 ar  
    43    22    49 1   
    44    23    24 ar  
    45    23    26 1   
    46    24    25 ar  
    47    24    50 1   
    48    25    51 1   
    49    27    28 1   
    50    27    52 1   
    51    28    29 2   
    52    28    30 1   
    53    30    31 1   
    54    30    32 1   
    55    30    33 1   
@<TRIPOS>SUBSTRUCTURE
     1 R8C         1 TEMP              0 ****  ****    0 ROOT
