@<TRIPOS>MOLECULE
R8D
   40    43     1     0     0
SMALL
abcg2


@<TRIPOS>ATOM
      1 CL28        12.7370    13.8600    15.2580 cl         1 R8D      -0.180000
      2 C13         11.1740    13.4400    14.6110 ca         1 R8D       0.074000
      3 C8          10.1140    13.1650    15.4620 ca         1 R8D       0.141100
      4 O7          10.2940    13.2640    16.8260 os         1 R8D      -0.237200
      5 C4           9.8120    12.2370    17.6030 ca         1 R8D       0.122100
      6 C3           9.9960    10.9090    17.2400 ca         1 R8D      -0.112000
      7 C2           9.5170     9.9140    18.0900 ca         1 R8D       0.018000
      8 C25          9.7000     8.5430    17.7320 cg         1 R8D       0.322000
      9 N26          9.8610     7.4390    17.4450 n1         1 R8D      -0.437000
     10 C5           9.1660    12.5790    18.7830 ca         1 R8D      -0.101000
     11 C6           8.7000    11.5640    19.6080 ca         1 R8D       0.132000
     12 CL27         7.8540    11.9830    21.0710 cl         1 R8D      -0.190000
     13 C1           8.8640    10.2270    19.2860 ca         1 R8D      -0.085000
     14 C12         10.9810    13.3620    13.2340 ca         1 R8D      -0.053000
     15 C11          9.7500    12.9980    12.7180 ca         1 R8D      -0.141000
     16 C10          8.6830    12.7260    13.5800 ca         1 R8D       0.164100
     17 C9           8.8650    12.8260    14.9540 ca         1 R8D      -0.227000
     18 O14          7.5070    12.3770    12.9970 os         1 R8D      -0.328100
     19 C15          6.3870    12.0750    13.8360 c3         1 R8D       0.158300
     20 C16          6.5500    10.8180    14.6350 cc         1 R8D       0.308900
     21 N20          7.0650     9.7200    14.1130 nd         1 R8D      -0.468100
     22 N19          7.0410     8.7690    15.0790 na         1 R8D      -0.169100
     23 C18          6.5030     9.2370    16.2340 ca         1 R8D       0.380500
     24 N24          6.3180     8.5670    17.3730 nb         1 R8D      -0.671000
     25 C23          5.7860     9.2910    18.3540 ca         1 R8D       0.375900
     26 C22          5.4360    10.6500    18.2450 ca         1 R8D      -0.199000
     27 C21          5.6230    11.3220    17.0520 ca         1 R8D      -0.004000
     28 C17          6.1720    10.5920    15.9930 ca         1 R8D      -0.268900
     29 H3          10.4960    10.6510    16.3180 ha         1 R8D       0.147000
     30 H5           9.0210    13.6190    19.0360 ha         1 R8D       0.150000
     31 H1           8.4900     9.4480    19.9320 ha         1 R8D       0.145000
     32 H12         11.8070    13.5730    12.5690 ha         1 R8D       0.136000
     33 H11          9.6010    12.9210    11.6490 ha         1 R8D       0.139000
     34 H9           8.0680    12.6340    15.6520 ha         1 R8D       0.136000
     35 H15          6.1760    12.9130    14.5040 h1         1 R8D       0.071200
     36 H15A         5.5510    11.9800    13.1430 h1         1 R8D       0.071200
     37 HN19         7.4080     7.8490    14.8930 hn         1 R8D       0.396000
     38 H23          5.6280     8.7770    19.2960 h4         1 R8D       0.026100
     39 H22          5.0260    11.1560    19.1080 ha         1 R8D       0.131000
     40 H21          5.3600    12.3670    16.9460 ha         1 R8D       0.124000
@<TRIPOS>BOND
     1     1     2 1   
     2     2     3 ar  
     3     2    14 ar  
     4     3     4 1   
     5     3    17 ar  
     6     4     5 1   
     7     5     6 ar  
     8     5    10 ar  
     9     6     7 ar  
    10     6    29 1   
    11     7     8 1   
    12     7    13 ar  
    13     8     9 3   
    14    10    11 ar  
    15    10    30 1   
    16    11    12 1   
    17    11    13 ar  
    18    13    31 1   
    19    14    15 ar  
    20    14    32 1   
    21    15    16 ar  
    22    15    33 1   
    23    16    17 ar  
    24    16    18 1   
    25    17    34 1   
    26    18    19 1   
    27    19    20 1   
    28    19    35 1   
    29    19    36 1   
    30    20    21 2   
    31    20    28 1   
    32    21    22 1   
    33    22    23 1   
    34    22    37 1   
    35    23    24 ar  
    36    23    28 ar  
    37    24    25 ar  
    38    25    26 ar  
    39    25    38 1   
    40    26    27 ar  
    41    26    39 1   
    42    27    28 ar  
    43    27    40 1   
@<TRIPOS>SUBSTRUCTURE
     1 R8D         1 TEMP              0 ****  ****    0 ROOT
