@<TRIPOS>MOLECULE
R8D
   40    43     1     0     0
SMALL
No Charge or Current Charge


@<TRIPOS>ATOM
      1 Cl28        12.6920    13.9850    15.3610 cl         1 R8D      -0.180000
      2 C13         11.1340    13.5150    14.6820 ca         1 R8D       0.074000
      3 C8          10.0390    13.2240    15.5190 ca         1 R8D       0.141100
      4 O7          10.1730    13.2840    16.8870 os         1 R8D      -0.237200
      5 C4           9.7760    12.2390    17.6900 ca         1 R8D       0.122100
      6 C3           9.9870    10.9040    17.2900 ca         1 R8D      -0.112000
      7 C2           9.5800     9.8430    18.1220 ca         1 R8D       0.018000
      8 C25          9.7970     8.4820    17.7130 cg         1 R8D       0.322000
      9 N26          9.9830     7.3800    17.3740 n1         1 R8D      -0.437000
     10 C5           9.1620    12.5140    18.9210 ca         1 R8D      -0.101000
     11 C6           8.7510    11.4570    19.7490 ca         1 R8D       0.132000
     12 Cl27         7.9610    11.8010    21.2810 cl         1 R8D      -0.190000
     13 C1           8.9630    10.1260    19.3560 ca         1 R8D      -0.085000
     14 C12         10.9900    13.4100    13.2880 ca         1 R8D      -0.053000
     15 C11          9.7570    13.0130    12.7360 ca         1 R8D      -0.141000
     16 C10          8.6610    12.7310    13.5680 ca         1 R8D       0.164100
     17 C9           8.8020    12.8530    14.9650 ca         1 R8D      -0.227000
     18 O14          7.4790    12.3430    12.9690 os         1 R8D      -0.328100
     19 C15          6.2900    11.9870    13.7160 c3         1 R8D       0.158300
     20 C16          6.4930    10.7020    14.5000 cc         1 R8D       0.308900
     21 N20          6.9220     9.5600    13.9410 nd         1 R8D      -0.468100
     22 N19          6.9090     8.6610    15.0160 na         1 R8D      -0.169100
     23 C18          6.4760     9.2140    16.1980 ca         1 R8D       0.380500
     24 N24          6.3040     8.6790    17.4200 nb         1 R8D      -0.671000
     25 C23          5.8490     9.5120    18.3910 ca         1 R8D       0.375900
     26 C22          5.5620    10.8750    18.1660 ca         1 R8D      -0.199000
     27 C21          5.7390    11.4130    16.8790 ca         1 R8D      -0.004000
     28 C17          6.2080    10.5210    15.9050 ca         1 R8D      -0.268900
     29 H3          10.4700    10.6910    16.3390 ha         1 R8D       0.147000
     30 H5           8.9990    13.5430    19.2290 ha         1 R8D       0.150000
     31 H1           8.6420     9.3160    20.0080 ha         1 R8D       0.145000
     32 H12         11.8340    13.6270    12.6380 ha         1 R8D       0.136000
     33 H11          9.6510    12.9240    11.6580 ha         1 R8D       0.139000
     34 H9           7.9740    12.6630    15.6360 ha         1 R8D       0.136000
     35 H15          6.0010    12.8000    14.3930 h1         1 R8D       0.071200
     36 H15A         5.4520    11.8310    13.0250 h1         1 R8D       0.071200
     37 HN19         7.1880     7.6910    14.9050 hn         1 R8D       0.396000
     38 H23          5.7160     9.0750    19.3800 h4         1 R8D       0.026100
     39 H22          5.2040    11.4960    18.9820 ha         1 R8D       0.131000
     40 H21          5.5200    12.4570    16.6620 ha         1 R8D       0.124000
@<TRIPOS>BOND
     1     1     2 1   
     2     2     3 ar  
     3     2    14 ar  
     4     3     4 1   
     5     3    17 ar  
     6     4     5 1   
     7     5     6 ar  
     8     5    10 ar  
     9     6     7 ar  
    10     6    29 1   
    11     7     8 1   
    12     7    13 ar  
    13     8     9 3   
    14    10    11 ar  
    15    10    30 1   
    16    11    12 1   
    17    11    13 ar  
    18    13    31 1   
    19    14    15 ar  
    20    14    32 1   
    21    15    16 ar  
    22    15    33 1   
    23    16    17 ar  
    24    16    18 1   
    25    17    34 1   
    26    18    19 1   
    27    19    20 1   
    28    19    35 1   
    29    19    36 1   
    30    20    21 2   
    31    20    28 1   
    32    21    22 1   
    33    22    23 1   
    34    22    37 1   
    35    23    24 ar  
    36    23    28 ar  
    37    24    25 ar  
    38    25    26 ar  
    39    25    38 1   
    40    26    27 ar  
    41    26    39 1   
    42    27    28 ar  
    43    27    40 1   
@<TRIPOS>SUBSTRUCTURE
     1 R8D         1 TEMP              0 ****  ****    0 ROOT
