@<TRIPOS>MOLECULE
R8E
   42    45     1     0     0
SMALL
abcg2


@<TRIPOS>ATOM
      1 CL29        13.0200    11.4080    15.3150 cl         1 R8E      -0.183000
      2 C13         11.3720    11.9710    15.2200 ca         1 R8E       0.070000
      3 C8          10.6590    12.2460    16.3890 ca         1 R8E       0.153100
      4 O7          11.2780    11.9920    17.5880 os         1 R8E      -0.237200
      5 C4          10.9060    12.6920    18.7110 ca         1 R8E       0.117100
      6 C3          10.6310    11.9630    19.8550 ca         1 R8E      -0.084000
      7 C2          10.3160    12.6530    21.0280 ca         1 R8E       0.009000
      8 C26         10.0240    11.9170    22.2170 cg         1 R8E       0.319000
      9 N27          9.7840    11.3240    23.1760 n1         1 R8E      -0.435000
     10 C5          10.8790    14.0830    18.7130 ca         1 R8E      -0.116000
     11 C6          10.5540    14.7390    19.8910 ca         1 R8E       0.132000
     12 CL28        10.5130    16.4810    19.9040 cl         1 R8E      -0.185000
     13 C1          10.2690    14.0490    21.0590 ca         1 R8E      -0.079000
     14 C12         10.7630    12.1420    13.9880 ca         1 R8E      -0.045000
     15 C11          9.4510    12.5940    13.8980 ca         1 R8E      -0.186000
     16 C10          8.7450    12.8700    15.0680 ca         1 R8E       0.166100
     17 C9           9.3480    12.6880    16.3110 ca         1 R8E      -0.197000
     18 O14          7.4640    13.3300    15.1040 os         1 R8E      -0.349100
     19 C15          6.6280    13.1310    13.9530 c3         1 R8E       0.155300
     20 C16          6.4420    11.6800    13.6550 cc         1 R8E       0.335900
     21 N20          6.4480    11.2280    12.4130 nd         1 R8E      -0.515100
     22 N19          6.2340     9.8830    12.4920 na         1 R8E      -0.176100
     23 C18          6.1090     9.4640    13.7760 ca         1 R8E       0.434500
     24 N24          5.9130     8.2110    14.1970 nb         1 R8E      -0.773000
     25 C23          5.8320     8.0690    15.5230 ca         1 R8E       0.643900
     26 N25          5.5850     6.8180    16.0050 nv         1 R8E      -1.062900
     27 C22          5.9550     9.1620    16.4370 ca         1 R8E      -0.256000
     28 C21          6.1590    10.4350    15.9700 ca         1 R8E       0.044000
     29 C17          6.2360    10.6170    14.5790 ca         1 R8E      -0.310900
     30 H3          10.6580    10.8830    19.8310 ha         1 R8E       0.147000
     31 H5          11.1040    14.6380    17.8140 ha         1 R8E       0.151000
     32 H1          10.0170    14.5740    21.9690 ha         1 R8E       0.146000
     33 H12         11.3210    11.9260    13.0880 ha         1 R8E       0.134000
     34 H11          9.0020    12.7200    12.9260 ha         1 R8E       0.136000
     35 H9           8.7760    12.8820    17.2070 ha         1 R8E       0.139000
     36 H15          5.6840    13.5970    14.2340 h1         1 R8E       0.075700
     37 H15A         7.0210    13.6530    13.0780 h1         1 R8E       0.075700
     38 HN19         6.2020     9.3270    11.6520 hn         1 R8E       0.386000
     39 HN25         5.7210     6.0450    15.3730 hn         1 R8E       0.483500
     40 HN2A         5.7710     6.6330    16.9770 hn         1 R8E       0.483500
     41 H22          5.8860     8.9610    17.4980 ha         1 R8E       0.124000
     42 H21          6.2630    11.2670    16.6550 ha         1 R8E       0.129000
@<TRIPOS>BOND
     1     1     2 1   
     2     2     3 ar  
     3     2    14 ar  
     4     3     4 1   
     5     3    17 ar  
     6     4     5 1   
     7     5     6 ar  
     8     5    10 ar  
     9     6     7 ar  
    10     6    30 1   
    11     7     8 1   
    12     7    13 ar  
    13     8     9 3   
    14    10    11 ar  
    15    10    31 1   
    16    11    12 1   
    17    11    13 ar  
    18    13    32 1   
    19    14    15 ar  
    20    14    33 1   
    21    15    16 ar  
    22    15    34 1   
    23    16    17 ar  
    24    16    18 1   
    25    17    35 1   
    26    18    19 1   
    27    19    20 1   
    28    19    36 1   
    29    19    37 1   
    30    20    21 2   
    31    20    29 1   
    32    21    22 1   
    33    22    23 1   
    34    22    38 1   
    35    23    24 ar  
    36    23    29 ar  
    37    24    25 ar  
    38    25    26 1   
    39    25    27 ar  
    40    26    39 1   
    41    26    40 1   
    42    27    28 ar  
    43    27    41 1   
    44    28    29 ar  
    45    28    42 1   
@<TRIPOS>SUBSTRUCTURE
     1 R8E         1 TEMP              0 ****  ****    0 ROOT
