@<TRIPOS>MOLECULE
R8E
   42    45     1     0     0
SMALL
No Charge or Current Charge


@<TRIPOS>ATOM
      1 Cl29        13.0710    11.3930    15.5080 cl         1 R8E      -0.183000
      2 C13         11.3790    11.8880    15.4340 ca         1 R8E       0.070000
      3 C8          10.6360    12.0980    16.6130 ca         1 R8E       0.153100
      4 O7          11.2310    11.8960    17.8400 os         1 R8E      -0.237200
      5 C4          11.0190    12.7250    18.9190 ca         1 R8E       0.117100
      6 C3          10.9820    12.1650    20.2070 ca         1 R8E      -0.084000
      7 C2          10.7790    12.9890    21.3320 ca         1 R8E       0.009000
      8 C26         10.7340    12.4150    22.6500 cg         1 R8E       0.319000
      9 N27         10.6940    11.9570    23.7230 n1         1 R8E      -0.435000
     10 C5          10.8750    14.1160    18.7510 ca         1 R8E      -0.116000
     11 C6          10.6730    14.9360    19.8710 ca         1 R8E       0.132000
     12 Cl28        10.4860    16.6720    19.6600 cl         1 R8E      -0.185000
     13 C1          10.6220    14.3780    21.1590 ca         1 R8E      -0.079000
     14 C12         10.7740    12.0850    14.1810 ca         1 R8E      -0.045000
     15 C11          9.4260    12.4810    14.1020 ca         1 R8E      -0.186000
     16 C10          8.6750    12.6720    15.2820 ca         1 R8E       0.166100
     17 C9           9.2840    12.4820    16.5300 ca         1 R8E      -0.197000
     18 O14          7.3480    13.0490    15.2710 os         1 R8E      -0.349100
     19 C15          6.5340    13.0380    14.0750 c3         1 R8E       0.155300
     20 C16          6.3770    11.6240    13.5470 cc         1 R8E       0.335900
     21 N20          6.5260    11.3130    12.2510 nd         1 R8E      -0.515100
     22 N19          6.3040     9.9290    12.2340 na         1 R8E      -0.176100
     23 C18          6.0220     9.3950    13.4700 ca         1 R8E       0.434500
     24 N24          5.7550     8.1350    13.8540 nb         1 R8E      -0.773000
     25 C23          5.5190     7.9720    15.1510 ca         1 R8E       0.643900
     26 N25          5.2750     6.6940    15.4310 nv         1 R8E      -1.062900
     27 C22          5.5330     8.9880    16.1180 ca         1 R8E      -0.256000
     28 C21          5.8120    10.2990    15.7020 ca         1 R8E       0.044000
     29 C17          6.0570    10.4540    14.3320 ca         1 R8E      -0.310900
     30 H3          11.1070    11.0910    20.3270 ha         1 R8E       0.147000
     31 H5          10.9240    14.5620    17.7610 ha         1 R8E       0.151000
     32 H1          10.4650    15.0260    22.0190 ha         1 R8E       0.146000
     33 H12         11.3510    11.9330    13.2720 ha         1 R8E       0.134000
     34 H11          8.9880    12.6340    13.1200 ha         1 R8E       0.136000
     35 H9           8.6990    12.6250    17.4340 ha         1 R8E       0.139000
     36 H15          5.5340    13.4290    14.2990 h1         1 R8E       0.075700
     37 H15A         6.9670    13.6800    13.2980 h1         1 R8E       0.075700
     38 HN19         6.3480     9.3880    11.3760 hn         1 R8E       0.386000
     39 HN25         5.5390     6.0540    14.6930 hn         1 R8E       0.483500
     40 HN2A         5.4530     6.3840    16.3790 hn         1 R8E       0.483500
     41 H22          5.3300     8.7660    17.1610 ha         1 R8E       0.124000
     42 H21          5.8360    11.1340    16.4010 ha         1 R8E       0.129000
@<TRIPOS>BOND
     1     1     2 1   
     2     2     3 ar  
     3     2    14 ar  
     4     3     4 1   
     5     3    17 ar  
     6     4     5 1   
     7     5     6 ar  
     8     5    10 ar  
     9     6     7 ar  
    10     6    30 1   
    11     7     8 1   
    12     7    13 ar  
    13     8     9 3   
    14    10    11 ar  
    15    10    31 1   
    16    11    12 1   
    17    11    13 ar  
    18    13    32 1   
    19    14    15 ar  
    20    14    33 1   
    21    15    16 ar  
    22    15    34 1   
    23    16    17 ar  
    24    16    18 1   
    25    17    35 1   
    26    18    19 1   
    27    19    20 1   
    28    19    36 1   
    29    19    37 1   
    30    20    21 2   
    31    20    29 1   
    32    21    22 1   
    33    22    23 1   
    34    22    38 1   
    35    23    24 ar  
    36    23    29 ar  
    37    24    25 ar  
    38    25    26 1   
    39    25    27 ar  
    40    26    39 1   
    41    26    40 1   
    42    27    28 ar  
    43    27    41 1   
    44    28    29 ar  
    45    28    42 1   
@<TRIPOS>SUBSTRUCTURE
     1 R8E         1 TEMP              0 ****  ****    0 ROOT
