@<TRIPOS>MOLECULE
R8F
   33    36     1     0     0
SMALL
abcg2


@<TRIPOS>ATOM
      1 C01        -21.1900     2.0320   -11.2280 c6         1 R8F       0.456500
      2 C02        -22.0230    -0.1810   -10.8530 c2         1 R8F       0.074100
      3 C03        -20.9060    -0.7560   -11.3450 ce         1 R8F      -0.356400
      4 C04        -19.7870     0.1270   -11.8500 c6         1 R8F       0.060700
      5 C05        -18.8560     0.5050   -10.7210 ce         1 R8F      -0.312400
      6 C06        -19.1550     1.5790    -9.9570 c2         1 R8F       0.087000
      7 C07        -20.4340     1.4060   -12.3820 c6         1 R8F      -0.117400
      8 C08        -20.8130    -2.1940   -11.3320 c          1 R8F       0.594100
      9 C09        -17.6810    -0.2940   -10.4220 c          1 R8F       0.594100
     10 C10        -17.8530     5.3480    -7.8570 cc         1 R8F       0.447700
     11 C11        -19.9820     5.3460    -7.9410 ca         1 R8F       0.247000
     12 C12        -22.1050     4.9160    -8.4790 ca         1 R8F       0.134900
     13 C13        -20.5270     3.4830    -9.3580 ca         1 R8F       0.382900
     14 C14        -19.5500     4.2480    -8.7180 ca         1 R8F      -0.217200
     15 N01        -20.2640     2.3620   -10.1520 nh         1 R8F      -0.674100
     16 N02        -18.1740     4.2880    -8.6450 na         1 R8F      -0.302600
     17 N03        -18.9000     6.0060    -7.4090 nd         1 R8F      -0.633700
     18 N04        -21.2670     5.6900    -7.8020 nb         1 R8F      -0.120000
     19 N05        -21.7990     3.8510    -9.2320 nb         1 R8F      -0.221000
     20 O01        -22.2320     1.1350   -10.7470 os         1 R8F      -0.326100
     21 O02        -19.8350    -2.8320   -11.7050 o          1 R8F      -0.540100
     22 H1         -21.7230     2.9340   -11.5020 h2         1 R8F       0.118700
     23 H2         -22.8690    -0.7540   -10.4930 h4         1 R8F       0.222000
     24 H3         -19.2360    -0.3940   -12.6330 hc         1 R8F       0.090700
     25 H4         -18.5280     1.8320    -9.1170 h4         1 R8F       0.210000
     26 H5         -19.6880     2.1150   -12.7400 hc         1 R8F       0.075200
     27 H6         -21.1320     1.1920   -13.1900 hc         1 R8F       0.075200
     28 O03        -16.9070    -0.1100    -9.4910 o          1 R8F      -0.555100
     29 H7         -21.7040    -2.7190   -10.9420 h4         1 R8F      -0.013800
     30 H8         -17.5110    -1.1290   -11.1230 h4         1 R8F       0.013200
     31 H10        -23.1590     5.1620    -8.4180 h5         1 R8F       0.061100
     32 H11        -17.5040     3.6970    -9.1120 hn         1 R8F       0.372000
     33 H9         -16.8230     5.5930    -7.6470 h5         1 R8F       0.075800
@<TRIPOS>BOND
     1     1     7 1   
     2     1    15 1   
     3     1    20 1   
     4     1    22 1   
     5     2     3 2   
     6     2    20 1   
     7     2    23 1   
     8     3     4 1   
     9     3     8 1   
    10     4     5 1   
    11     4     7 1   
    12     4    24 1   
    13     5     6 2   
    14     5     9 1   
    15     6    15 1   
    16     6    25 1   
    17     7    26 1   
    18     7    27 1   
    19     8    21 2   
    20     8    29 1   
    21     9    28 2   
    22     9    30 1   
    23    10    16 1   
    24    10    17 2   
    25    10    33 1   
    26    11    14 ar  
    27    11    17 1   
    28    11    18 ar  
    29    12    18 ar  
    30    12    19 ar  
    31    12    31 1   
    32    13    14 ar  
    33    13    15 1   
    34    13    19 ar  
    35    14    16 1   
    36    16    32 1   
@<TRIPOS>SUBSTRUCTURE
     1 R8F         1 TEMP              0 ****  ****    0 ROOT
