@<TRIPOS>MOLECULE
R8F
   33    36     1     0     0
SMALL
No Charge or Current Charge


@<TRIPOS>ATOM
      1 C01        -21.1320     2.1090   -11.2430 c6         1 R8F       0.456500
      2 C02        -22.0740    -0.1310   -10.9770 c2         1 R8F       0.074100
      3 C03        -20.9290    -0.7230   -11.3960 ce         1 R8F      -0.356400
      4 C04        -19.7260     0.1390   -11.7920 c6         1 R8F       0.060700
      5 C05        -18.9140     0.4310   -10.5280 ce         1 R8F      -0.312400
      6 C06        -19.2560     1.4620    -9.7220 c2         1 R8F       0.087000
      7 C07        -20.2550     1.4750   -12.3480 c6         1 R8F      -0.117400
      8 C08        -20.8110    -2.2110   -11.4860 c          1 R8F       0.594100
      9 C09        -17.7510    -0.4590   -10.2330 c          1 R8F       0.594100
     10 C10        -17.8020     5.5080    -8.2810 cc         1 R8F       0.447700
     11 C11        -19.9600     5.4160    -7.9780 ca         1 R8F       0.247000
     12 C12        -22.1480     4.7580    -8.1040 ca         1 R8F       0.134900
     13 C13        -20.6090     3.4430    -9.2050 ca         1 R8F       0.382900
     14 C14        -19.6230     4.3390    -8.7530 ca         1 R8F      -0.217200
     15 N01        -20.3190     2.3240   -10.0130 nh         1 R8F      -0.674100
     16 N02        -18.2720     4.3940    -8.9650 na         1 R8F      -0.302600
     17 N03        -18.8170     6.1540    -7.6660 nd         1 R8F      -0.633700
     18 N04        -21.2400     5.6440    -7.6290 nb         1 R8F      -0.120000
     19 N05        -21.9000     3.6740    -8.8800 nb         1 R8F      -0.221000
     20 O01        -22.2450     1.2350   -10.9310 os         1 R8F      -0.326100
     21 O02        -19.7950    -2.7930   -11.8490 o          1 R8F      -0.540100
     22 H1         -21.5200     3.0800   -11.5930 h2         1 R8F       0.118700
     23 H2         -22.9630    -0.6940   -10.6800 h4         1 R8F       0.222000
     24 H3         -19.1090    -0.3550   -12.5590 hc         1 R8F       0.090700
     25 H4         -18.7080     1.6720    -8.7970 h4         1 R8F       0.210000
     26 H5         -19.4260     2.1460   -12.6100 hc         1 R8F       0.075200
     27 H6         -20.8460     1.3150   -13.2590 hc         1 R8F       0.075200
     28 O03        -17.0280    -0.3170    -9.2520 o          1 R8F      -0.555100
     29 H7         -21.7200    -2.7830   -11.1940 h4         1 R8F      -0.013800
     30 H8         -17.5640    -1.2760   -10.9650 h4         1 R8F       0.013200
     31 H10        -23.1880     4.9370    -7.8360 h5         1 R8F       0.061100
     32 H11        -17.7110     3.7770    -9.5400 hn         1 R8F       0.372000
     33 H9         -16.7560     5.7930    -8.2780 h5         1 R8F       0.075800
@<TRIPOS>BOND
     1     1     7 1   
     2     1    15 1   
     3     1    20 1   
     4     1    22 1   
     5     2     3 2   
     6     2    20 1   
     7     2    23 1   
     8     3     4 1   
     9     3     8 1   
    10     4     5 1   
    11     4     7 1   
    12     4    24 1   
    13     5     6 2   
    14     5     9 1   
    15     6    15 1   
    16     6    25 1   
    17     7    26 1   
    18     7    27 1   
    19     8    21 2   
    20     8    29 1   
    21     9    28 2   
    22     9    30 1   
    23    10    16 1   
    24    10    17 2   
    25    10    33 1   
    26    11    14 ar  
    27    11    17 1   
    28    11    18 ar  
    29    12    18 ar  
    30    12    19 ar  
    31    12    31 1   
    32    13    14 ar  
    33    13    15 1   
    34    13    19 ar  
    35    14    16 1   
    36    16    32 1   
@<TRIPOS>SUBSTRUCTURE
     1 R8F         1 TEMP              0 ****  ****    0 ROOT
