@<TRIPOS>MOLECULE
R8G
  134   141     1     0     0
SMALL
No Charge or Current Charge


@<TRIPOS>ATOM
      1 CAA         12.1410    -4.5890    -0.0960 c3         1 R8G       0.153100
      2 CAD         -8.2460    -8.6830    -2.2990 c3         1 R8G       0.152600
      3 OAE          0.6810     4.0070    -1.1350 o          1 R8G      -0.524500
      4 OAF         -0.8020    -3.9670     1.1470 o          1 R8G      -0.524500
      5 OAG          3.9210     0.7930    -1.2630 o          1 R8G      -0.571000
      6 OAH         -4.0430    -0.7520     1.2750 o          1 R8G      -0.571000
      7 CAI         -1.2860     2.2100    -0.1960 ca         1 R8G      -0.112000
      8 CAJ          1.1650    -2.1690     0.2080 ca         1 R8G      -0.112000
      9 CAK          5.6050    -2.8100    -0.1640 c3         1 R8G      -0.096900
     10 CAL         -5.7220     2.8630     0.1880 c3         1 R8G      -0.096900
     11 CAM          4.0830     4.1410    -0.6090 c3         1 R8G      -0.094400
     12 CAN         -4.1970    -4.1090     0.6220 c3         1 R8G      -0.094400
     13 CAO          4.1350    -2.7430     0.2830 c3         1 R8G       0.224300
     14 CAP         -4.2560     2.7860    -0.2690 c3         1 R8G       0.224300
     15 CAQ          6.4050    -3.8770     0.6150 c3         1 R8G       0.173300
     16 CAR         -6.5190     3.9380    -0.5830 c3         1 R8G       0.173300
     17 CAS          5.0980     5.1640    -1.1630 c3         1 R8G       0.169800
     18 CAT         -5.1970    -5.1460     1.1770 c3         1 R8G       0.169800
     19 CAU          9.8800    -5.5400     0.2390 c6         1 R8G       0.163550
     20 CAV         10.1270    -3.1580    -0.2650 c6         1 R8G       0.163550
     21 CAW        -10.2590     4.8620    -0.9580 c6         1 R8G       0.163550
     22 CAX         -9.8540     4.2970     1.3880 c6         1 R8G       0.163550
     23 CAY          7.2510     8.0060     0.3480 c6         1 R8G       0.162800
     24 CAZ          7.3040     6.1240     1.8970 c6         1 R8G       0.162800
     25 CBA         -8.1020    -7.2370    -0.2950 c6         1 R8G       0.162800
     26 CBB         -6.2750    -7.2340    -1.9240 c6         1 R8G       0.162800
     27 CBC          8.4360    -5.2760     0.7750 c6         1 R8G       0.164050
     28 CBD          8.6800    -2.8940     0.2650 c6         1 R8G       0.164050
     29 CBE         -8.7190     4.8650    -1.2220 c6         1 R8G       0.164050
     30 CBF         -8.3130     4.2950     1.1240 c6         1 R8G       0.164050
     31 CBG          6.5640     7.1070    -0.7340 c6         1 R8G       0.144800
     32 CBH          6.6140     5.2110     0.8290 c6         1 R8G       0.144800
     33 CBI         -7.1510    -6.6020     0.7700 c6         1 R8G       0.144800
     34 CBJ         -5.3250    -6.5930    -0.8600 c6         1 R8G       0.144800
     35 CBK          3.3060     3.4160    -1.7260 c3         1 R8G       0.091000
     36 CBL         -3.4260    -3.3760     1.7390 c3         1 R8G       0.091000
     37 NBM          3.4190    -1.7150    -0.4840 nu         1 R8G      -0.954700
     38 NBN         -3.5410     1.7560     0.4960 nu         1 R8G      -0.954700
     39 CBO          2.1210    -1.2590    -0.2570 ca         1 R8G       0.403000
     40 CBP         -2.2430     1.3000     0.2690 ca         1 R8G       0.403000
     41 CBQ          1.0210     2.8440    -0.9530 c          1 R8G       0.584100
     42 CBR         -1.1420    -2.8030     0.9650 c          1 R8G       0.584100
     43 CBS          2.7610     1.0990    -1.0110 c          1 R8G       0.608600
     44 CBT         -2.8830    -1.0580     1.0230 c          1 R8G       0.608600
     45 CBU          0.0410     1.8210    -0.4530 ca         1 R8G      -0.094600
     46 CBV         -0.1630    -1.7800     0.4650 ca         1 R8G      -0.094600
     47 CBW          1.7570     0.0880    -0.4940 ca         1 R8G      -0.254600
     48 CBX         -1.8790    -0.0470     0.5060 ca         1 R8G      -0.254600
     49 CBY          0.4210     0.4850    -0.2340 ca         1 R8G       0.005000
     50 CBZ         -0.5430    -0.4440     0.2460 ca         1 R8G       0.005000
     51 NCA         10.7640    -4.3440     0.3840 n3         1 R8G      -0.717100
     52 NCB        -10.5920     5.2050     0.4570 n3         1 R8G      -0.717100
     53 NCC          8.1140     7.2240     1.2870 n3         1 R8G      -0.715100
     54 NCD         -7.3570    -8.0540    -1.3000 n3         1 R8G      -0.715100
     55 NCE          7.7890    -4.0920     0.1270 n3         1 R8G      -0.720100
     56 NCF         -7.9740     3.9550    -0.2970 n3         1 R8G      -0.720100
     57 NCG          5.7670     5.9930    -0.1310 n3         1 R8G      -0.712600
     58 NCH         -6.0670    -5.7760     0.1540 n3         1 R8G      -0.712600
     59 NCI          2.3300     2.4190    -1.1950 n          1 R8G      -0.362400
     60 NCJ         -2.4510    -2.3780     1.2070 n          1 R8G      -0.362400
     61 H1          12.1470    -4.8170    -1.1710 h1         1 R8G       0.030867
     62 H2          12.7720    -3.7060     0.0720 h1         1 R8G       0.030867
     63 H3          12.5930    -5.4350     0.4380 h1         1 R8G       0.030867
     64 H4         -12.2530     5.5340     1.7490 h1         1 R8G       0.030867
     65 H5         -12.5470     5.9430     0.0460 h1         1 R8G       0.030867
     66 H6         -12.4910     4.2380     0.5520 h1         1 R8G       0.030867
     67 H7           9.9560     7.5980     0.2800 h1         1 R8G       0.029200
     68 H8           9.9960     6.2290     1.4100 h1         1 R8G       0.029200
     69 H9           9.1840     6.0580    -0.1620 h1         1 R8G       0.029200
     70 H10         -8.7740    -7.9220    -2.8890 h1         1 R8G       0.029200
     71 H11         -7.6700    -9.3150    -2.9880 h1         1 R8G       0.029200
     72 H12         -8.9960    -9.3170    -1.8050 h1         1 R8G       0.029200
     73 H13         -1.5790     3.2420    -0.3550 ha         1 R8G       0.144000
     74 H14          1.4580    -3.2010     0.3680 ha         1 R8G       0.144000
     75 H15          5.6470    -3.0420    -1.2340 hc         1 R8G       0.060200
     76 H16          6.0630    -1.8250    -0.0200 hc         1 R8G       0.060200
     77 H17         -6.2010     1.8880     0.0390 hc         1 R8G       0.060200
     78 H18         -5.7450     3.0830     1.2610 hc         1 R8G       0.060200
     79 H19          4.6040     3.3910    -0.0030 hc         1 R8G       0.058700
     80 H20          3.3740     4.6580     0.0480 hc         1 R8G       0.058700
     81 H21         -3.4730    -4.6040    -0.0350 hc         1 R8G       0.058700
     82 H22         -4.7400    -3.3740     0.0160 hc         1 R8G       0.058700
     83 H23          3.6670    -3.7270     0.1350 h1         1 R8G       0.045950
     84 H24          4.0960    -2.5050     1.3560 h1         1 R8G       0.045950
     85 H25         -4.2250     2.5450    -1.3410 h1         1 R8G       0.045950
     86 H26         -3.7830     3.7670    -0.1270 h1         1 R8G       0.045950
     87 H27          6.4220    -3.5980     1.6780 h1         1 R8G       0.032200
     88 H28          5.8510    -4.8230     0.5410 h1         1 R8G       0.032200
     89 H29         -6.0830     4.9230    -0.3670 h1         1 R8G       0.032200
     90 H30         -6.3710     3.7520    -1.6560 h1         1 R8G       0.032200
     91 H31          5.8500     4.6280    -1.7580 h1         1 R8G       0.030450
     92 H32          4.5560     5.8250    -1.8530 h1         1 R8G       0.030450
     93 H33         -4.6380    -5.9200     1.7200 h1         1 R8G       0.030450
     94 H34         -5.8300    -4.6320     1.9140 h1         1 R8G       0.030450
     95 H35         10.3050    -6.3960     0.7840 h1         1 R8G       0.038575
     96 H36          9.8110    -5.8350    -0.8190 h1         1 R8G       0.038575
     97 H37         10.0760    -3.3060    -1.3540 h1         1 R8G       0.038575
     98 H38         10.7340    -2.2580    -0.0910 h1         1 R8G       0.038575
     99 H39        -10.7340     5.5770    -1.6450 h1         1 R8G       0.038575
    100 H40        -10.6540     3.8660    -1.2090 h1         1 R8G       0.038575
    101 H41        -10.2260     3.2670     1.2840 h1         1 R8G       0.038575
    102 H42        -10.0310     4.5980     2.4310 h1         1 R8G       0.038575
    103 H43          7.8380     8.7890    -0.1550 h1         1 R8G       0.047575
    104 H44          6.4620     8.5210     0.9150 h1         1 R8G       0.047575
    105 H45          6.5180     6.5550     2.5340 h1         1 R8G       0.047575
    106 H46          7.9300     5.5000     2.5520 h1         1 R8G       0.047575
    107 H47         -8.8460    -7.8570     0.2260 h1         1 R8G       0.047575
    108 H48         -8.6530    -6.4270    -0.7960 h1         1 R8G       0.047575
    109 H49         -6.7130    -6.4260    -2.5290 h1         1 R8G       0.047575
    110 H50         -5.6710    -7.8520    -2.6040 h1         1 R8G       0.047575
    111 H51          7.8310    -6.1790     0.6050 h1         1 R8G       0.038325
    112 H52          8.4890    -5.1270     1.8630 h1         1 R8G       0.038325
    113 H53          8.7440    -2.5910     1.3210 h1         1 R8G       0.038325
    114 H54          8.2710    -2.0380    -0.2910 h1         1 R8G       0.038325
    115 H55         -8.5440     4.5690    -2.2670 h1         1 R8G       0.038325
    116 H56         -8.3490     5.8960    -1.1160 h1         1 R8G       0.038325
    117 H57         -7.9130     5.2870     1.3800 h1         1 R8G       0.038325
    118 H58         -7.8560     3.5750     1.8170 h1         1 R8G       0.038325
    119 H59          5.9140     7.7440    -1.3520 h1         1 R8G       0.036200
    120 H60          7.3370     6.7010    -1.4030 h1         1 R8G       0.036200
    121 H61          7.3870     4.6510     0.2820 h1         1 R8G       0.036200
    122 H62          6.0050     4.4700     1.3660 h1         1 R8G       0.036200
    123 H63         -7.7550    -5.9870     1.4540 h1         1 R8G       0.036200
    124 H64         -6.7110    -7.4120     1.3720 h1         1 R8G       0.036200
    125 H65         -4.7670    -7.3980    -0.3590 h1         1 R8G       0.036200
    126 H66         -4.5900    -5.9760    -1.3950 h1         1 R8G       0.036200
    127 H67          2.7840     4.1600    -2.3420 h1         1 R8G       0.068200
    128 H68          4.0190     2.9220    -2.3990 h1         1 R8G       0.068200
    129 H69         -4.1440    -2.8820     2.4070 h1         1 R8G       0.068200
    130 H70         -2.9040    -4.1160     2.3590 h1         1 R8G       0.068200
    131 H71          4.0100    -0.9730    -0.8810 hn         1 R8G       0.536000
    132 H72         -4.1320     1.0130     0.8900 hn         1 R8G       0.536000
    133 CAC          9.3760     6.7500     0.6690 c3         1 R8G       0.152600
    134 CAB        -12.0470     5.2290     0.7140 c3         1 R8G       0.153100
@<TRIPOS>BOND
     1     1    51 1   
     2     1    61 1   
     3     1    62 1   
     4     1    63 1   
     5     2    54 1   
     6     2    70 1   
     7     2    71 1   
     8     2    72 1   
     9     3    41 2   
    10     4    42 2   
    11     5    43 2   
    12     6    44 2   
    13     7    40 ar  
    14     7    45 ar  
    15     7    73 1   
    16     8    39 ar  
    17     8    46 ar  
    18     8    74 1   
    19     9    13 1   
    20     9    15 1   
    21     9    75 1   
    22     9    76 1   
    23    10    14 1   
    24    10    16 1   
    25    10    77 1   
    26    10    78 1   
    27    11    17 1   
    28    11    35 1   
    29    11    79 1   
    30    11    80 1   
    31    12    18 1   
    32    12    36 1   
    33    12    81 1   
    34    12    82 1   
    35    13    37 1   
    36    13    83 1   
    37    13    84 1   
    38    14    38 1   
    39    14    85 1   
    40    14    86 1   
    41    15    55 1   
    42    15    87 1   
    43    15    88 1   
    44    16    56 1   
    45    16    89 1   
    46    16    90 1   
    47    17    57 1   
    48    17    91 1   
    49    17    92 1   
    50    18    58 1   
    51    18    93 1   
    52    18    94 1   
    53    19    27 1   
    54    19    51 1   
    55    19    95 1   
    56    19    96 1   
    57    20    28 1   
    58    20    51 1   
    59    20    97 1   
    60    20    98 1   
    61    21    29 1   
    62    21    52 1   
    63    21    99 1   
    64    21   100 1   
    65    22    30 1   
    66    22    52 1   
    67    22   101 1   
    68    22   102 1   
    69    23    31 1   
    70    23    53 1   
    71    23   103 1   
    72    23   104 1   
    73    24    32 1   
    74    24    53 1   
    75    24   105 1   
    76    24   106 1   
    77    25    33 1   
    78    25    54 1   
    79    25   107 1   
    80    25   108 1   
    81    26    34 1   
    82    26    54 1   
    83    26   109 1   
    84    26   110 1   
    85    27    55 1   
    86    27   111 1   
    87    27   112 1   
    88    28    55 1   
    89    28   113 1   
    90    28   114 1   
    91    29    56 1   
    92    29   115 1   
    93    29   116 1   
    94    30    56 1   
    95    30   117 1   
    96    30   118 1   
    97    31    57 1   
    98    31   119 1   
    99    31   120 1   
   100    32    57 1   
   101    32   121 1   
   102    32   122 1   
   103    33    58 1   
   104    33   123 1   
   105    33   124 1   
   106    34    58 1   
   107    34   125 1   
   108    34   126 1   
   109    35    59 1   
   110    35   127 1   
   111    35   128 1   
   112    36    60 1   
   113    36   129 1   
   114    36   130 1   
   115    37    39 1   
   116    37   131 1   
   117    38    40 1   
   118    38   132 1   
   119    39    47 ar  
   120    40    48 ar  
   121    41    45 1   
   122    41    59 1   
   123    42    46 1   
   124    42    60 1   
   125    43    47 1   
   126    43    59 1   
   127    44    48 1   
   128    44    60 1   
   129    45    49 ar  
   130    46    50 ar  
   131    47    49 ar  
   132    48    50 ar  
   133    49    50 ar  
   134    52   134 1   
   135    53   133 1   
   136    64   134 1   
   137    65   134 1   
   138    66   134 1   
   139    67   133 1   
   140    68   133 1   
   141    69   133 1   
@<TRIPOS>SUBSTRUCTURE
     1 R8G         1 TEMP              0 ****  ****    0 ROOT
