@<TRIPOS>MOLECULE
R8G
  134   141     1     0     0
SMALL
abcg2


@<TRIPOS>ATOM
      1 CAA         11.5600    -5.3330     0.4680 c3         1 R8G       0.153100
      2 CAD         -7.4160    -9.2100    -1.9170 c3         1 R8G       0.152600
      3 OAE          0.5400     3.9730    -1.5400 o          1 R8G      -0.524500
      4 OAF         -0.6480    -3.8740     1.0160 o          1 R8G      -0.524500
      5 OAG          3.9100     0.9890    -1.2440 o          1 R8G      -0.571000
      6 OAH         -4.0090    -0.8800     0.7640 o          1 R8G      -0.571000
      7 CAI         -1.3640     2.1450    -0.6710 ca         1 R8G      -0.112000
      8 CAJ          1.2570    -2.0440     0.1520 ca         1 R8G      -0.112000
      9 CAK          5.5240    -2.8510    -0.1510 c3         1 R8G      -0.096900
     10 CAL         -5.6090     2.9770    -0.0730 c3         1 R8G      -0.096900
     11 CAM          3.7950     4.2370    -0.7610 c3         1 R8G      -0.094400
     12 CAN         -3.9360    -4.1440     0.4010 c3         1 R8G      -0.094400
     13 CAO          4.0120    -2.8000    -0.0010 c3         1 R8G       0.224300
     14 CAP         -4.1250     2.9200    -0.3990 c3         1 R8G       0.224300
     15 CAQ          6.0590    -4.1930     0.3290 c3         1 R8G       0.173300
     16 CAR         -6.1990     4.3420    -0.4000 c3         1 R8G       0.173300
     17 CAS          4.8190     5.2320    -1.2940 c3         1 R8G       0.169800
     18 CAT         -4.8180    -5.2070     1.0420 c3         1 R8G       0.169800
     19 CAU          9.3130    -5.9920    -0.0410 c6         1 R8G       0.163550
     20 CAV          9.7820    -3.7280     0.4910 c6         1 R8G       0.163550
     21 CAW         -9.7380     5.5470    -0.5700 c6         1 R8G       0.163550
     22 CAX         -9.4130     4.4920     1.5320 c6         1 R8G       0.163550
     23 CAY          6.4730     8.2630     0.1470 c6         1 R8G       0.162800
     24 CAZ          6.4820     6.5670     1.8010 c6         1 R8G       0.162800
     25 CBA         -7.4310    -7.5930    -0.1500 c6         1 R8G       0.162800
     26 CBB         -5.6810    -7.5680    -1.7490 c6         1 R8G       0.162800
     27 CBC          7.8530    -5.7670     0.3000 c6         1 R8G       0.164050
     28 CBD          8.3210    -3.4990     0.8290 c6         1 R8G       0.164050
     29 CBE         -8.2390     5.5440    -0.8010 c6         1 R8G       0.164050
     30 CBF         -7.9150     4.4870     1.2960 c6         1 R8G       0.164050
     31 CBG          6.0560     7.2410    -0.9040 c6         1 R8G       0.144800
     32 CBH          6.0620     5.5340     0.7600 c6         1 R8G       0.144800
     33 CBI         -6.5610    -6.8090     0.8120 c6         1 R8G       0.144800
     34 CBJ         -4.8070    -6.7800    -0.7910 c6         1 R8G       0.144800
     35 CBK          3.1640     3.4600    -1.9090 c3         1 R8G       0.091000
     36 CBL         -3.2470    -3.3310     1.4880 c3         1 R8G       0.091000
     37 NBM          3.5130    -1.5020    -0.3950 nu         1 R8G      -0.954700
     38 NBN         -3.6140     1.6040    -0.0870 nu         1 R8G      -0.954700
     39 CBO          2.2320    -1.1150    -0.3030 ca         1 R8G       0.403000
     40 CBP         -2.3370     1.2180    -0.2040 ca         1 R8G       0.403000
     41 CBQ          0.8950     2.8390    -1.2880 c          1 R8G       0.584100
     42 CBR         -1.0000    -2.7370     0.7740 c          1 R8G       0.584100
     43 CBS          2.7100     1.1960    -1.1160 c          1 R8G       0.608600
     44 CBT         -2.8120    -1.0890     0.6210 c          1 R8G       0.608600
     45 CBU         -0.0470     1.8080    -0.8080 ca         1 R8G      -0.094600
     46 CBV         -0.0610    -1.7090     0.2840 ca         1 R8G      -0.094600
     47 CBW          1.7820     0.1820    -0.6370 ca         1 R8G      -0.254600
     48 CBX         -1.8880    -0.0820     0.1210 ca         1 R8G      -0.254600
     49 CBY          0.4190     0.5130    -0.4940 ca         1 R8G       0.005000
     50 CBZ         -0.5260    -0.4140    -0.0290 ca         1 R8G       0.005000
     51 NCA         10.1580    -5.1050     0.7310 n3         1 R8G      -0.717100
     52 NCB        -10.0380     5.6050     0.8460 n3         1 R8G      -0.717100
     53 NCC          7.2220     7.6880     1.2500 n3         1 R8G      -0.715100
     54 NCD         -6.6130    -8.4070    -1.0250 n3         1 R8G      -0.715100
     55 NCE          7.4700    -4.3880     0.0590 n3         1 R8G      -0.720100
     56 NCF         -7.6200     4.4200    -0.1240 n3         1 R8G      -0.720100
     57 NCG          5.2860     6.1700    -0.2930 n3         1 R8G      -0.712600
     58 NCH         -5.6160    -5.9680     0.1000 n3         1 R8G      -0.712600
     59 NCI          2.2090     2.4520    -1.4420 n          1 R8G      -0.362400
     60 NCJ         -2.3080    -2.3410     0.9580 n          1 R8G      -0.362400
     61 H1          11.8430    -5.1410    -0.5790 h1         1 R8G       0.030867
     62 H2          12.1710    -4.6890     1.1020 h1         1 R8G       0.030867
     63 H3          11.8190    -6.3680     0.6970 h1         1 R8G       0.030867
     64 H4         -11.6540     5.7540     2.1600 h1         1 R8G       0.030867
     65 H5         -11.8980     6.5160     0.5890 h1         1 R8G       0.030867
     66 H6         -11.9920     4.7540     0.7390 h1         1 R8G       0.030867
     67 H7           9.1060     8.2660     0.5700 h1         1 R8G       0.029200
     68 H8           9.1140     7.0120     1.8050 h1         1 R8G       0.029200
     69 H9           8.7220     6.6000     0.1360 h1         1 R8G       0.029200
     70 H10         -8.0500    -8.6110    -2.5910 h1         1 R8G       0.029200
     71 H11         -6.7730    -9.8380    -2.5360 h1         1 R8G       0.029200
     72 H12         -8.0710    -9.8670    -1.3430 h1         1 R8G       0.029200
     73 H13         -1.6710     3.1480    -0.9300 ha         1 R8G       0.144000
     74 H14          1.5610    -3.0490     0.4080 ha         1 R8G       0.144000
     75 H15          5.7990    -2.7050    -1.1990 hc         1 R8G       0.060200
     76 H16          5.9660    -2.0290     0.4190 hc         1 R8G       0.060200
     77 H17         -6.1420     2.2150    -0.6470 hc         1 R8G       0.060200
     78 H18         -5.7430     2.7380     0.9850 hc         1 R8G       0.060200
     79 H19          4.2630     3.5360    -0.0670 hc         1 R8G       0.058700
     80 H20          3.0250     4.7780    -0.2070 hc         1 R8G       0.058700
     81 H21         -3.1790    -4.6040    -0.2390 hc         1 R8G       0.058700
     82 H22         -4.5440    -3.4930    -0.2310 hc         1 R8G       0.058700
     83 H23          3.5600    -3.5880    -0.6130 h1         1 R8G       0.045950
     84 H24          3.7400    -3.0110     1.0390 h1         1 R8G       0.045950
     85 H25         -3.9680     3.1550    -1.4570 h1         1 R8G       0.045950
     86 H26         -3.5940     3.6840     0.1800 h1         1 R8G       0.045950
     87 H27          5.8320    -4.3130     1.4030 h1         1 R8G       0.032200
     88 H28          5.5130    -4.9880    -0.1890 h1         1 R8G       0.032200
     89 H29         -5.6380     5.1290     0.1340 h1         1 R8G       0.032200
     90 H30         -6.0560     4.5340    -1.4670 h1         1 R8G       0.032200
     91 H31          5.6560     4.6820    -1.7590 h1         1 R8G       0.030450
     92 H32          4.3550     5.8160    -2.0960 h1         1 R8G       0.030450
     93 H33         -4.1880    -5.8740     1.6590 h1         1 R8G       0.030450
     94 H34         -5.5090    -4.7140     1.7340 h1         1 R8G       0.030450
     95 H35          9.5770    -7.0270     0.1860 h1         1 R8G       0.038575
     96 H36          9.4570    -5.8510    -1.1270 h1         1 R8G       0.038575
     97 H37          9.9600    -3.4330    -0.5580 h1         1 R8G       0.038575
     98 H38         10.3960    -3.0740     1.1150 h1         1 R8G       0.038575
     99 H39        -10.1740     6.4180    -1.0660 h1         1 R8G       0.038575
    100 H40        -10.1760     4.6490    -1.0420 h1         1 R8G       0.038575
    101 H41         -9.8340     3.5250     1.2020 h1         1 R8G       0.038575
    102 H42         -9.6050     4.5770     2.6040 h1         1 R8G       0.038575
    103 H43          7.0630     9.0550    -0.3190 h1         1 R8G       0.047575
    104 H44          5.5690     8.7310     0.5520 h1         1 R8G       0.047575
    105 H45          5.5780     6.9550     2.2830 h1         1 R8G       0.047575
    106 H46          7.0790     6.0850     2.5790 h1         1 R8G       0.047575
    107 H47         -8.1010    -8.2410     0.4220 h1         1 R8G       0.047575
    108 H48         -8.0680    -6.8930    -0.7210 h1         1 R8G       0.047575
    109 H49         -6.2050    -6.8650    -2.4220 h1         1 R8G       0.047575
    110 H50         -5.0430    -8.1960    -2.3750 h1         1 R8G       0.047575
    111 H51          7.2380    -6.4220    -0.3210 h1         1 R8G       0.038325
    112 H52          7.6800    -6.0600     1.3510 h1         1 R8G       0.038325
    113 H53          8.1710    -3.6360     1.9140 h1         1 R8G       0.038325
    114 H54          8.0760    -2.4600     0.6000 h1         1 R8G       0.038325
    115 H55         -8.0440     5.4680    -1.8730 h1         1 R8G       0.038325
    116 H56         -7.8190     6.5070    -0.4610 h1         1 R8G       0.038325
    117 H57         -7.4720     5.3880     1.7550 h1         1 R8G       0.038325
    118 H58         -7.4880     3.6220     1.8080 h1         1 R8G       0.038325
    119 H59          5.4400     7.7360    -1.6590 h1         1 R8G       0.036200
    120 H60          6.9480     6.8510    -1.4280 h1         1 R8G       0.036200
    121 H61          6.9500     5.0190     0.3490 h1         1 R8G       0.036200
    122 H62          5.4580     4.7720     1.2560 h1         1 R8G       0.036200
    123 H63         -7.1990    -6.1780     1.4360 h1         1 R8G       0.036200
    124 H64         -6.0450    -7.5150     1.4860 h1         1 R8G       0.036200
    125 H65         -4.1620    -7.4770    -0.2280 h1         1 R8G       0.036200
    126 H66         -4.1490    -6.1390    -1.3810 h1         1 R8G       0.036200
    127 H67          2.6370     4.1340    -2.5790 h1         1 R8G       0.068200
    128 H68          3.9270     2.9550    -2.4970 h1         1 R8G       0.068200
    129 H69         -3.9810    -2.8090     2.0970 h1         1 R8G       0.068200
    130 H70         -2.6910    -3.9900     2.1530 h1         1 R8G       0.068200
    131 H71          4.1680    -0.8020    -0.7140 hn         1 R8G       0.536000
    132 H72         -4.2600     0.8980     0.2370 hn         1 R8G       0.536000
    133 CAC          8.5930     7.3650     0.9130 c3         1 R8G       0.152600
    134 CAB        -11.4600     5.6520     1.0910 c3         1 R8G       0.153100
@<TRIPOS>BOND
     1     1    51 1   
     2     1    61 1   
     3     1    62 1   
     4     1    63 1   
     5     2    54 1   
     6     2    70 1   
     7     2    71 1   
     8     2    72 1   
     9     3    41 2   
    10     4    42 2   
    11     5    43 2   
    12     6    44 2   
    13     7    40 ar  
    14     7    45 ar  
    15     7    73 1   
    16     8    39 ar  
    17     8    46 ar  
    18     8    74 1   
    19     9    13 1   
    20     9    15 1   
    21     9    75 1   
    22     9    76 1   
    23    10    14 1   
    24    10    16 1   
    25    10    77 1   
    26    10    78 1   
    27    11    17 1   
    28    11    35 1   
    29    11    79 1   
    30    11    80 1   
    31    12    18 1   
    32    12    36 1   
    33    12    81 1   
    34    12    82 1   
    35    13    37 1   
    36    13    83 1   
    37    13    84 1   
    38    14    38 1   
    39    14    85 1   
    40    14    86 1   
    41    15    55 1   
    42    15    87 1   
    43    15    88 1   
    44    16    56 1   
    45    16    89 1   
    46    16    90 1   
    47    17    57 1   
    48    17    91 1   
    49    17    92 1   
    50    18    58 1   
    51    18    93 1   
    52    18    94 1   
    53    19    27 1   
    54    19    51 1   
    55    19    95 1   
    56    19    96 1   
    57    20    28 1   
    58    20    51 1   
    59    20    97 1   
    60    20    98 1   
    61    21    29 1   
    62    21    52 1   
    63    21    99 1   
    64    21   100 1   
    65    22    30 1   
    66    22    52 1   
    67    22   101 1   
    68    22   102 1   
    69    23    31 1   
    70    23    53 1   
    71    23   103 1   
    72    23   104 1   
    73    24    32 1   
    74    24    53 1   
    75    24   105 1   
    76    24   106 1   
    77    25    33 1   
    78    25    54 1   
    79    25   107 1   
    80    25   108 1   
    81    26    34 1   
    82    26    54 1   
    83    26   109 1   
    84    26   110 1   
    85    27    55 1   
    86    27   111 1   
    87    27   112 1   
    88    28    55 1   
    89    28   113 1   
    90    28   114 1   
    91    29    56 1   
    92    29   115 1   
    93    29   116 1   
    94    30    56 1   
    95    30   117 1   
    96    30   118 1   
    97    31    57 1   
    98    31   119 1   
    99    31   120 1   
   100    32    57 1   
   101    32   121 1   
   102    32   122 1   
   103    33    58 1   
   104    33   123 1   
   105    33   124 1   
   106    34    58 1   
   107    34   125 1   
   108    34   126 1   
   109    35    59 1   
   110    35   127 1   
   111    35   128 1   
   112    36    60 1   
   113    36   129 1   
   114    36   130 1   
   115    37    39 1   
   116    37   131 1   
   117    38    40 1   
   118    38   132 1   
   119    39    47 ar  
   120    40    48 ar  
   121    41    45 1   
   122    41    59 1   
   123    42    46 1   
   124    42    60 1   
   125    43    47 1   
   126    43    59 1   
   127    44    48 1   
   128    44    60 1   
   129    45    49 ar  
   130    46    50 ar  
   131    47    49 ar  
   132    48    50 ar  
   133    49    50 ar  
   134    52   134 1   
   135    53   133 1   
   136    64   134 1   
   137    65   134 1   
   138    66   134 1   
   139    67   133 1   
   140    68   133 1   
   141    69   133 1   
@<TRIPOS>SUBSTRUCTURE
     1 R8G         1 TEMP              0 ****  ****    0 ROOT
