@<TRIPOS>MOLECULE
R8H
   66    69     1     0     0
SMALL
No Charge or Current Charge


@<TRIPOS>ATOM
      1 N1           5.0730    -1.1270    24.8720 n          1 R8H      -0.388800
      2 N3           5.0870    -0.0980    19.0650 nb         1 R8H      -0.667000
      3 C4           5.7420    -6.9580    23.9160 ca         1 R8H      -0.104000
      4 C5           4.9520    -7.2380    25.0440 ca         1 R8H      -0.109000
      5 C6           5.2320    -6.6140    26.2720 ca         1 R8H      -0.103000
      6 C7           6.3010    -5.7080    26.3690 ca         1 R8H      -0.109000
      7 C8           7.0940    -5.4310    25.2410 ca         1 R8H      -0.104000
      8 C10          6.1070    -1.5160    23.8690 c5         1 R8H       0.026700
      9 C13          4.7890     0.2410    24.9060 c          1 R8H       0.565000
     10 C15          3.1250    -2.6630    25.4560 ca         1 R8H      -0.099300
     11 C17          0.6920    -2.5270    25.2710 ca         1 R8H      -0.119500
     12 C20          3.0710    -3.9830    24.9670 ca         1 R8H      -0.080500
     13 C22          7.1410    -1.2780    18.3920 c3         1 R8H       0.054700
     14 C24          7.1960     0.9220    19.6830 ca         1 R8H      -0.152000
     15 C26          5.1280     1.9970    20.2830 ca         1 R8H      -0.161000
     16 O3           6.1030    -3.8960    19.0560 o          1 R8H      -0.570100
     17 N2           7.6870    -2.2790    19.3280 ns         1 R8H      -0.500900
     18 C23          6.4430    -0.1040    19.0790 ca         1 R8H       0.339300
     19 C27          4.4480     0.9370    19.6590 ca         1 R8H       0.346900
     20 C25          6.5310     1.9950    20.2980 ca         1 R8H      -0.076000
     21 C            7.9410    -4.3960    20.5980 c3         1 R8H       0.072300
     22 O            9.2500    -3.8310    20.9140 oh         1 R8H      -0.672000
     23 C1           7.1210    -4.6290    21.8990 c3         1 R8H       0.101700
     24 C2           7.6870    -5.7670    22.7850 c3         1 R8H      -0.052100
     25 C3           6.8210    -6.0570    24.0080 ca         1 R8H      -0.081300
     26 N            6.9960    -3.3880    22.6740 ns         1 R8H      -0.501900
     27 C9           5.8060    -2.7630    22.9800 c          1 R8H       0.593100
     28 O1           4.7210    -3.1480    22.5690 o          1 R8H      -0.546100
     29 O2           3.8240     0.7560    25.4510 o          1 R8H      -0.546000
     30 C12          5.8030     0.8730    23.9590 c5         1 R8H      -0.171400
     31 C11          6.1050    -0.2550    22.9430 c5         1 R8H      -0.086400
     32 C14          4.4650    -2.0490    25.8570 c3         1 R8H       0.162300
     33 C19          1.8410    -4.5680    24.6220 ca         1 R8H      -0.119500
     34 C18          0.6500    -3.8390    24.7720 ca         1 R8H      -0.103000
     35 C16          1.9240    -1.9420    25.6160 ca         1 R8H      -0.080500
     36 H1           5.5180    -7.4470    22.9700 ha         1 R8H       0.108500
     37 H2           4.1220    -7.9370    24.9670 ha         1 R8H       0.115000
     38 H3           4.6190    -6.8290    27.1450 ha         1 R8H       0.118000
     39 H4           6.5180    -5.2210    27.3170 ha         1 R8H       0.115000
     40 H5           7.9220    -4.7310    25.3260 ha         1 R8H       0.108500
     41 H6           7.0760    -1.6410    24.3700 h1         1 R8H       0.043700
     42 H7          -0.2290    -1.9620    25.3950 ha         1 R8H       0.108500
     43 H8           3.9870    -4.5540    24.8430 ha         1 R8H       0.121500
     44 H9           6.4420    -1.7640    17.6990 h1         1 R8H       0.069700
     45 H10          7.9690    -0.8850    17.7870 h1         1 R8H       0.069700
     46 H12          4.5670     2.8040    20.7460 ha         1 R8H       0.125000
     47 H13          8.5590    -2.0910    19.8130 hn         1 R8H       0.332500
     48 H14          3.3590     0.9140    19.6330 h4         1 R8H       0.020100
     49 H15          7.0880     2.8010    20.7740 ha         1 R8H       0.114000
     50 H16          8.0710    -5.3640    20.0950 h1         1 R8H       0.060700
     51 H17          9.7800    -4.5310    21.3570 ho         1 R8H       0.454000
     52 H18          6.1160    -4.9510    21.5880 h1         1 R8H       0.117700
     53 H19          7.7810    -6.6770    22.1780 hc         1 R8H       0.048200
     54 H20          8.7040    -5.5110    23.1040 hc         1 R8H       0.048200
     55 H21          7.8450    -2.9640    23.0290 hn         1 R8H       0.311500
     56 H22          6.7140     1.0710    24.5350 hc         1 R8H       0.075700
     57 H23          5.4340     1.8120    23.5350 hc         1 R8H       0.075700
     58 H24          7.0550    -0.1180    22.4130 hc         1 R8H       0.067700
     59 H25          5.3110    -0.3170    22.1890 hc         1 R8H       0.067700
     60 H26          5.1810    -2.8570    26.0530 h1         1 R8H       0.049200
     61 H27          4.3360    -1.5130    26.8070 h1         1 R8H       0.049200
     62 H28          1.8120    -5.5850    24.2380 ha         1 R8H       0.108500
     63 H29         -0.3040    -4.2910    24.5060 ha         1 R8H       0.107000
     64 H30          1.9400    -0.9310    26.0140 ha         1 R8H       0.121500
     65 C21          7.1340    -3.5140    19.5940 c          1 R8H       0.594100
     66 H11          8.2820     0.8820    19.6720 ha         1 R8H       0.120000
@<TRIPOS>BOND
     1     1     8 1   
     2     1     9 1   
     3     1    32 1   
     4     2    18 ar  
     5     2    19 ar  
     6     3     4 ar  
     7     3    25 ar  
     8     3    36 1   
     9     4     5 ar  
    10     4    37 1   
    11     5     6 ar  
    12     5    38 1   
    13     6     7 ar  
    14     6    39 1   
    15     7    25 ar  
    16     7    40 1   
    17     8    27 1   
    18     8    31 1   
    19     8    41 1   
    20     9    29 2   
    21     9    30 1   
    22    10    12 ar  
    23    10    32 1   
    24    10    35 ar  
    25    11    34 ar  
    26    11    35 ar  
    27    11    42 1   
    28    12    33 ar  
    29    12    43 1   
    30    13    17 1   
    31    13    18 1   
    32    13    44 1   
    33    13    45 1   
    34    14    18 ar  
    35    14    20 ar  
    36    14    66 1   
    37    15    19 ar  
    38    15    20 ar  
    39    15    46 1   
    40    16    65 2   
    41    17    47 1   
    42    17    65 1   
    43    19    48 1   
    44    20    49 1   
    45    21    22 1   
    46    21    23 1   
    47    21    50 1   
    48    21    65 1   
    49    22    51 1   
    50    23    24 1   
    51    23    26 1   
    52    23    52 1   
    53    24    25 1   
    54    24    53 1   
    55    24    54 1   
    56    26    27 1   
    57    26    55 1   
    58    27    28 2   
    59    30    31 1   
    60    30    56 1   
    61    30    57 1   
    62    31    58 1   
    63    31    59 1   
    64    32    60 1   
    65    32    61 1   
    66    33    34 ar  
    67    33    62 1   
    68    34    63 1   
    69    35    64 1   
@<TRIPOS>SUBSTRUCTURE
     1 R8H         1 TEMP              0 ****  ****    0 ROOT
