@<TRIPOS>MOLECULE
R8H
   66    69     1     0     0
SMALL
abcg2


@<TRIPOS>ATOM
      1 N1           4.9490    -1.2360    25.0210 n          1 R8H      -0.388800
      2 N3           5.7610     0.2110    17.6940 nb         1 R8H      -0.667000
      3 C4           5.6860    -6.8200    23.7820 ca         1 R8H      -0.104000
      4 C5           4.9240    -7.1790    24.8840 ca         1 R8H      -0.109000
      5 C6           5.2280    -6.6660    26.1390 ca         1 R8H      -0.103000
      6 C7           6.2940    -5.7880    26.2790 ca         1 R8H      -0.109000
      7 C8           7.0550    -5.4340    25.1730 ca         1 R8H      -0.104000
      8 C10          6.0580    -1.4630    24.1170 c5         1 R8H       0.026700
      9 C13          4.6900     0.0800    25.2140 c          1 R8H       0.565000
     10 C15          3.1290    -2.8000    25.7450 ca         1 R8H      -0.099300
     11 C17          0.7280    -2.6420    25.9950 ca         1 R8H      -0.119500
     12 C20          2.9590    -4.0470    25.1500 ca         1 R8H      -0.080500
     13 C22          7.5050    -1.3980    18.0800 c3         1 R8H       0.054700
     14 C24          6.9030     0.3890    19.7770 ca         1 R8H      -0.152000
     15 C26          5.1890     1.9580    19.2210 ca         1 R8H      -0.161000
     16 O3           5.9720    -3.2330    19.4980 o          1 R8H      -0.570100
     17 N2           7.9750    -2.2680    19.1260 ns         1 R8H      -0.500900
     18 C23          6.6780    -0.2270    18.5510 ca         1 R8H       0.339300
     19 C27          5.0390     1.2750    18.0250 ca         1 R8H       0.346900
     20 C25          6.1460     1.4990    20.1150 ca         1 R8H      -0.076000
     21 C            7.8580    -4.1410    20.6660 c3         1 R8H       0.072300
     22 O            9.1500    -3.6880    20.9890 oh         1 R8H      -0.672000
     23 C1           7.0250    -4.3980    21.9240 c3         1 R8H       0.101700
     24 C2           7.6010    -5.5810    22.7170 c3         1 R8H      -0.052100
     25 C3           6.7670    -5.9500    23.9110 ca         1 R8H      -0.081300
     26 N            6.9660    -3.2160    22.7530 ns         1 R8H      -0.501900
     27 C9           5.8280    -2.6380    23.1760 c          1 R8H       0.593100
     28 O1           4.7110    -2.9630    22.8170 o          1 R8H      -0.546100
     29 O2           3.9110     0.5280    26.0350 o          1 R8H      -0.546000
     30 C12          5.5740     0.8830    24.2900 c5         1 R8H      -0.171400
     31 C11          6.1340    -0.1490    23.3240 c5         1 R8H      -0.086400
     32 C14          4.5140    -2.2430    25.9780 c3         1 R8H       0.162300
     33 C19          1.6930    -4.5870    24.9740 ca         1 R8H      -0.119500
     34 C18          0.5710    -3.8830    25.3910 ca         1 R8H      -0.103000
     35 C16          1.9970    -2.1090    26.1750 ca         1 R8H      -0.080500
     36 H1           5.4470    -7.2320    22.8080 ha         1 R8H       0.108500
     37 H2           4.0930    -7.8620    24.7650 ha         1 R8H       0.115000
     38 H3           4.6340    -6.9450    27.0000 ha         1 R8H       0.118000
     39 H4           6.5380    -5.3810    27.2520 ha         1 R8H       0.115000
     40 H5           7.8950    -4.7600    25.2960 ha         1 R8H       0.108500
     41 H6           6.9800    -1.6170    24.6920 h1         1 R8H       0.043700
     42 H7          -0.1390    -2.0910    26.3350 ha         1 R8H       0.108500
     43 H8           3.8250    -4.6090    24.8280 ha         1 R8H       0.121500
     44 H9           6.9240    -1.9610    17.3480 h1         1 R8H       0.069700
     45 H10          8.3850    -1.0190    17.5550 h1         1 R8H       0.069700
     46 H12          4.5730     2.8180    19.4430 ha         1 R8H       0.125000
     47 H13          8.9520    -2.2690    19.3690 hn         1 R8H       0.332500
     48 H14          4.2980     1.5980    17.3010 h4         1 R8H       0.020100
     49 H15          6.3000     2.0000    21.0620 ha         1 R8H       0.114000
     50 H16          7.8970    -5.0840    20.1040 h1         1 R8H       0.060700
     51 H17          9.7620    -4.4300    20.9730 ho         1 R8H       0.454000
     52 H18          6.0090    -4.6400    21.6150 h1         1 R8H       0.117700
     53 H19          7.6780    -6.4380    22.0430 hc         1 R8H       0.048200
     54 H20          8.6170    -5.3410    23.0400 hc         1 R8H       0.048200
     55 H21          7.8370    -2.9010    23.1520 hn         1 R8H       0.311500
     56 H22          6.3600     1.3410    24.8970 hc         1 R8H       0.075700
     57 H23          5.0240     1.6890    23.8060 hc         1 R8H       0.075700
     58 H24          7.1490     0.0630    22.9950 hc         1 R8H       0.067700
     59 H25          5.4990    -0.2140    22.4390 hc         1 R8H       0.067700
     60 H26          5.2400    -3.0570    25.9560 h1         1 R8H       0.049200
     61 H27          4.5640    -1.8100    26.9800 h1         1 R8H       0.049200
     62 H28          1.5850    -5.5600    24.5120 ha         1 R8H       0.108500
     63 H29         -0.4180    -4.3020    25.2550 ha         1 R8H       0.107000
     64 H30          2.1100    -1.1480    26.6580 ha         1 R8H       0.121500
     65 C21          7.1690    -3.1540    19.7260 c          1 R8H       0.594100
     66 H11          7.6550     0.0050    20.4540 ha         1 R8H       0.120000
@<TRIPOS>BOND
     1     1     8 1   
     2     1     9 1   
     3     1    32 1   
     4     2    18 ar  
     5     2    19 ar  
     6     3     4 ar  
     7     3    25 ar  
     8     3    36 1   
     9     4     5 ar  
    10     4    37 1   
    11     5     6 ar  
    12     5    38 1   
    13     6     7 ar  
    14     6    39 1   
    15     7    25 ar  
    16     7    40 1   
    17     8    27 1   
    18     8    31 1   
    19     8    41 1   
    20     9    29 2   
    21     9    30 1   
    22    10    12 ar  
    23    10    32 1   
    24    10    35 ar  
    25    11    34 ar  
    26    11    35 ar  
    27    11    42 1   
    28    12    33 ar  
    29    12    43 1   
    30    13    17 1   
    31    13    18 1   
    32    13    44 1   
    33    13    45 1   
    34    14    18 ar  
    35    14    20 ar  
    36    14    66 1   
    37    15    19 ar  
    38    15    20 ar  
    39    15    46 1   
    40    16    65 2   
    41    17    47 1   
    42    17    65 1   
    43    19    48 1   
    44    20    49 1   
    45    21    22 1   
    46    21    23 1   
    47    21    50 1   
    48    21    65 1   
    49    22    51 1   
    50    23    24 1   
    51    23    26 1   
    52    23    52 1   
    53    24    25 1   
    54    24    53 1   
    55    24    54 1   
    56    26    27 1   
    57    26    55 1   
    58    27    28 2   
    59    30    31 1   
    60    30    56 1   
    61    30    57 1   
    62    31    58 1   
    63    31    59 1   
    64    32    60 1   
    65    32    61 1   
    66    33    34 ar  
    67    33    62 1   
    68    34    63 1   
    69    35    64 1   
@<TRIPOS>SUBSTRUCTURE
     1 R8H         1 TEMP              0 ****  ****    0 ROOT
