@<TRIPOS>MOLECULE
R8I
   51    54     1     0     0
SMALL
abcg2


@<TRIPOS>ATOM
      1 N1         -19.4140     7.5520    29.5470 ns         1 R8I      -0.498900
      2 N3         -19.9490     4.5690    27.3100 ns         1 R8I      -0.163000
      3 C4         -22.6340     5.9930    31.1980 c6         1 R8I       0.227100
      4 C5         -21.7470     7.9660    30.0670 c3         1 R8I       0.091800
      5 C6         -20.4100     8.4590    29.5240 c          1 R8I       0.588100
      6 C7         -18.0720     7.8830    29.1320 c3         1 R8I       0.173100
      7 C8         -17.3650     8.7110    30.1200 c1         1 R8I       0.281900
      8 C10        -21.8760     4.4700    28.7810 c6         1 R8I      -0.092400
      9 C13        -17.6140     3.9330    27.2470 ca         1 R8I       0.339900
     10 C15        -16.9070     6.2450    25.9610 ca         1 R8I      -0.097000
     11 C17        -17.4350     8.4030    25.0150 ca         1 R8I      -0.109000
     12 C20        -18.2800     6.0350    26.2690 ca         1 R8I      -0.031000
     13 C21        -22.3200     3.7610    30.0370 ca         1 R8I      -0.051300
     14 C22        -22.3830     2.3680    30.0520 ca         1 R8I      -0.088000
     15 C11        -20.3580     4.4020    28.6000 c          1 R8I       0.607100
     16 C12        -18.6100     4.8250    26.9370 ca         1 R8I      -0.093000
     17 C19        -19.2170     7.0410    25.9350 ca         1 R8I      -0.116000
     18 C18        -18.7970     8.1970    25.3240 ca         1 R8I      -0.080000
     19 C16        -16.5060     7.4440    25.3270 ca         1 R8I      -0.079000
     20 C14        -15.9760     5.2490    26.3400 ca         1 R8I       0.355900
     21 N4         -16.3050     4.1380    26.9580 nb         1 R8I      -0.647000
     22 C3         -22.6630     4.4840    31.1820 ca         1 R8I      -0.061300
     23 C2         -23.0660     3.7940    32.3250 ca         1 R8I      -0.099000
     24 C1         -23.1290     2.4090    32.3500 ca         1 R8I      -0.089000
     25 C          -22.7830     1.7090    31.2000 ca         1 R8I       0.127000
     26 CL         -22.8550    -0.0430    31.2070 cl         1 R8I      -0.206000
     27 C9         -22.2910     5.9480    28.8260 c6         1 R8I       0.175800
     28 N          -21.8550     6.5220    30.0900 n3         1 R8I      -0.751600
     29 O          -20.2560     9.6140    29.1380 o          1 R8I      -0.604100
     30 N2         -16.8100     9.3540    30.8950 n1         1 R8I      -0.453000
     31 H1         -19.6180     6.6280    29.9060 hn         1 R8I       0.361500
     32 H2         -20.6630     4.7380    26.6150 hn         1 R8I       0.152000
     33 H3         -22.1960     6.3400    32.1350 h1         1 R8I       0.050200
     34 H4         -23.6730     6.3660    31.1700 h1         1 R8I       0.050200
     35 H5         -21.8100     8.3470    31.0900 h1         1 R8I       0.069200
     36 H6         -22.5420     8.4590    29.4940 h1         1 R8I       0.069200
     37 H7         -17.5070     6.9630    28.9890 h1         1 R8I       0.082700
     38 H8         -18.0840     8.4260    28.1860 h1         1 R8I       0.082700
     39 H9         -22.3480     4.0020    27.9140 hc         1 R8I       0.070700
     40 H10        -17.8590     3.0090    27.7550 h4         1 R8I       0.038100
     41 H11        -17.1290     9.3240    24.5370 ha         1 R8I       0.124000
     42 H12        -22.1170     1.8050    29.1660 ha         1 R8I       0.129000
     43 H13        -20.2620     6.9100    26.1750 ha         1 R8I       0.110000
     44 H14        -19.5190     8.9670    25.0830 ha         1 R8I       0.123000
     45 H15        -15.4570     7.5900    25.1020 ha         1 R8I       0.123000
     46 H16        -14.9250     5.4020    26.1130 h4         1 R8I       0.025100
     47 H17        -23.3310     4.3510    33.2170 ha         1 R8I       0.120000
     48 H18        -23.4380     1.8830    33.2420 ha         1 R8I       0.134000
     49 H19        -21.8320     6.4950    28.0040 h1         1 R8I       0.045700
     50 H20        -23.3820     6.0220    28.7030 h1         1 R8I       0.045700
     51 O1         -19.5790     4.2830    29.5360 o          1 R8I      -0.564100
@<TRIPOS>BOND
     1     1     5 1   
     2     1     6 1   
     3     1    31 1   
     4     2    15 1   
     5     2    16 1   
     6     2    32 1   
     7     3    22 1   
     8     3    28 1   
     9     3    33 1   
    10     3    34 1   
    11     4     5 1   
    12     4    28 1   
    13     4    35 1   
    14     4    36 1   
    15     5    29 2   
    16     6     7 1   
    17     6    37 1   
    18     6    38 1   
    19     7    30 3   
    20     8    13 1   
    21     8    15 1   
    22     8    27 1   
    23     8    39 1   
    24     9    16 ar  
    25     9    21 ar  
    26     9    40 1   
    27    10    12 ar  
    28    10    19 ar  
    29    10    20 ar  
    30    11    18 ar  
    31    11    19 ar  
    32    11    41 1   
    33    12    16 ar  
    34    12    17 ar  
    35    13    14 ar  
    36    13    22 ar  
    37    14    25 ar  
    38    14    42 1   
    39    15    51 2   
    40    17    18 ar  
    41    17    43 1   
    42    18    44 1   
    43    19    45 1   
    44    20    21 ar  
    45    20    46 1   
    46    22    23 ar  
    47    23    24 ar  
    48    23    47 1   
    49    24    25 ar  
    50    24    48 1   
    51    25    26 1   
    52    27    28 1   
    53    27    49 1   
    54    27    50 1   
@<TRIPOS>SUBSTRUCTURE
     1 R8I         1 TEMP              0 ****  ****    0 ROOT
