@<TRIPOS>MOLECULE
R8I
   51    54     1     0     0
SMALL
No Charge or Current Charge


@<TRIPOS>ATOM
      1 N1         -19.4220     8.0000    29.6220 ns         1 R8I      -0.498900
      2 N3         -19.7870     4.9130    27.6360 ns         1 R8I      -0.163000
      3 C4         -22.5710     5.7690    31.4660 c6         1 R8I       0.227100
      4 C5         -21.6950     7.9180    30.5560 c3         1 R8I       0.091800
      5 C6         -20.6280     8.6560    29.7030 c          1 R8I       0.588100
      6 C7         -18.2490     8.4770    28.8710 c3         1 R8I       0.173100
      7 C8         -17.4440     9.4350    29.6470 c1         1 R8I       0.281900
      8 C10        -21.8680     4.4720    28.8990 c6         1 R8I      -0.092400
      9 C13        -17.4470     4.0620    27.5500 ca         1 R8I       0.339900
     10 C15        -16.7310     6.1060    25.8530 ca         1 R8I      -0.097000
     11 C17        -17.2280     8.1060    24.5550 ca         1 R8I      -0.109000
     12 C20        -18.0730     6.0400    26.2840 ca         1 R8I      -0.031000
     13 C21        -22.4510     3.6350    30.0460 ca         1 R8I      -0.051300
     14 C22        -22.6620     2.2520    29.8830 ca         1 R8I      -0.088000
     15 C11        -20.3490     4.2470    28.7190 c          1 R8I       0.607100
     16 C12        -18.4430     4.9960    27.1660 ca         1 R8I      -0.093000
     17 C19        -18.9900     7.0200    25.8390 ca         1 R8I      -0.116000
     18 C18        -18.5660     8.0470    24.9790 ca         1 R8I      -0.080000
     19 C16        -16.3100     7.1370    24.9900 ca         1 R8I      -0.079000
     20 C14        -15.8180     5.1310    26.2980 ca         1 R8I       0.355900
     21 N4         -16.1630     4.1220    27.1290 nb         1 R8I      -0.647000
     22 C3         -22.7600     4.2550    31.2780 ca         1 R8I      -0.061300
     23 C2         -23.2790     3.4810    32.3350 ca         1 R8I      -0.099000
     24 C1         -23.4840     2.1000    32.1680 ca         1 R8I      -0.089000
     25 C          -23.1760     1.4880    30.9430 ca         1 R8I       0.127000
     26 Cl         -23.4340    -0.2390    30.7350 cl         1 R8I      -0.206000
     27 C9         -22.1780     5.9780    29.0630 c6         1 R8I       0.175800
     28 N          -21.7490     6.4250    30.4090 n3         1 R8I      -0.751600
     29 O          -20.8310     9.7200    29.1330 o          1 R8I      -0.604100
     30 N2         -16.8070    10.1760    30.2840 n1         1 R8I      -0.453000
     31 H1         -19.3760     7.1110    30.1100 hn         1 R8I       0.361500
     32 H2         -20.4460     5.4560    27.0940 hn         1 R8I       0.152000
     33 H3         -22.1160     5.9440    32.4520 h1         1 R8I       0.050200
     34 H4         -23.5710     6.2260    31.4970 h1         1 R8I       0.050200
     35 H5         -21.4640     8.1740    31.5980 h1         1 R8I       0.069200
     36 H6         -22.6710     8.3630    30.3200 h1         1 R8I       0.069200
     37 H7         -17.6160     7.6200    28.6090 h1         1 R8I       0.082700
     38 H8         -18.5750     8.9580    27.9400 h1         1 R8I       0.082700
     39 H9         -22.3290     4.2180    27.9350 hc         1 R8I       0.070700
     40 H10        -17.6740     3.2220    28.2020 h4         1 R8I       0.038100
     41 H11        -16.9030     8.9030    23.8900 ha         1 R8I       0.124000
     42 H12        -22.4230     1.7680    28.9400 ha         1 R8I       0.129000
     43 H13        -20.0300     7.0040    26.1520 ha         1 R8I       0.110000
     44 H14        -19.2750     8.8000    24.6410 ha         1 R8I       0.123000
     45 H15        -15.2750     7.1880    24.6580 ha         1 R8I       0.123000
     46 H16        -14.7760     5.1560    25.9800 h4         1 R8I       0.025100
     47 H17        -23.5260     3.9500    33.2850 ha         1 R8I       0.120000
     48 H18        -23.8840     1.5050    32.9860 ha         1 R8I       0.134000
     49 H19        -21.6790     6.5570    28.2720 h1         1 R8I       0.045700
     50 H20        -23.2590     6.1430    28.9370 h1         1 R8I       0.045700
     51 O1         -19.6940     3.5510    29.4880 o          1 R8I      -0.564100
@<TRIPOS>BOND
     1     1     5 1   
     2     1     6 1   
     3     1    31 1   
     4     2    15 1   
     5     2    16 1   
     6     2    32 1   
     7     3    22 1   
     8     3    28 1   
     9     3    33 1   
    10     3    34 1   
    11     4     5 1   
    12     4    28 1   
    13     4    35 1   
    14     4    36 1   
    15     5    29 2   
    16     6     7 1   
    17     6    37 1   
    18     6    38 1   
    19     7    30 3   
    20     8    13 1   
    21     8    15 1   
    22     8    27 1   
    23     8    39 1   
    24     9    16 ar  
    25     9    21 ar  
    26     9    40 1   
    27    10    12 ar  
    28    10    19 ar  
    29    10    20 ar  
    30    11    18 ar  
    31    11    19 ar  
    32    11    41 1   
    33    12    16 ar  
    34    12    17 ar  
    35    13    14 ar  
    36    13    22 ar  
    37    14    25 ar  
    38    14    42 1   
    39    15    51 2   
    40    17    18 ar  
    41    17    43 1   
    42    18    44 1   
    43    19    45 1   
    44    20    21 ar  
    45    20    46 1   
    46    22    23 ar  
    47    23    24 ar  
    48    23    47 1   
    49    24    25 ar  
    50    24    48 1   
    51    25    26 1   
    52    27    28 1   
    53    27    49 1   
    54    27    50 1   
@<TRIPOS>SUBSTRUCTURE
     1 R8I         1 TEMP              0 ****  ****    0 ROOT
