@<TRIPOS>MOLECULE
R8J
   27    29     1     0     0
SMALL
abcg2


@<TRIPOS>ATOM
      1 OAA         -5.8860     0.6120     0.8560 o          1 R8J      -0.709500
      2 OAC         -5.5720    -1.4890     0.1720 o          1 R8J      -0.709500
      3 CAD          5.7930    -0.3070     0.6290 cc         1 R8J       0.177900
      4 CAE         -3.1710     1.2120     0.4710 ca         1 R8J      -0.047000
      5 CAF         -1.8230     1.4390     0.2610 ca         1 R8J      -0.215000
      6 CAG          4.6970     0.4850     0.8200 cd         1 R8J      -0.208000
      7 CAH         -2.8490    -1.0140    -0.2620 ca         1 R8J       0.370900
      8 CAI          2.1390     1.7390    -0.7540 cc         1 R8J       0.022000
      9 NAJ          5.5240    -1.1640    -0.3820 nc         1 R8J      -0.374000
     10 NAK         -1.5570    -0.8120    -0.4970 nb         1 R8J      -0.685000
     11 NAL          4.3400    -0.9410    -0.8250 nd         1 R8J      -0.165800
     12 NAM          0.7950     1.8070    -0.7570 na         1 R8J      -0.515200
     13 CAN         -5.1950    -0.3330     0.4340 c          1 R8J       0.719600
     14 CAO         -3.7180    -0.0400     0.2120 ca         1 R8J      -0.180600
     15 CAP         -1.0640     0.3830    -0.2330 ca         1 R8J       0.420900
     16 CAQ          2.5230     0.5030    -0.3590 cd         1 R8J      -0.229300
     17 CAR          1.3420    -0.3080    -0.1550 c          1 R8J       0.583200
     18 NAS          3.8220     0.0550    -0.1120 na         1 R8J       0.247900
     19 NAT          0.3030     0.5500    -0.5050 n          1 R8J      -0.251700
     20 HAD          6.7340    -0.3070     1.1530 h4         1 R8J       0.040100
     21 HAE         -3.7960     2.0100     0.8510 ha         1 R8J       0.136000
     22 HAF         -1.3790     2.3990     0.4870 ha         1 R8J       0.104000
     23 HAG          4.4730     1.2770     1.5130 h4         1 R8J       0.164000
     24 HAH         -3.2200    -2.0080    -0.4790 h4         1 R8J       0.045100
     25 HAI          2.7270     2.5950    -1.0430 h4         1 R8J       0.220000
     26 HNAM         0.2990     2.3610    -1.4460 hn         1 R8J       0.515000
     27 OAB          1.2300    -1.4460     0.2600 o          1 R8J      -0.477000
@<TRIPOS>BOND
     1     1    13 1   
     2     2    13 1   
     3     3     6 2   
     4     3     9 1   
     5     3    20 1   
     6     4     5 ar  
     7     4    14 ar  
     8     4    21 1   
     9     5    15 ar  
    10     5    22 1   
    11     6    18 1   
    12     6    23 1   
    13     7    10 ar  
    14     7    14 ar  
    15     7    24 1   
    16     8    12 1   
    17     8    16 2   
    18     8    25 1   
    19     9    11 2   
    20    10    15 ar  
    21    11    18 1   
    22    12    19 1   
    23    12    26 1   
    24    13    14 1   
    25    15    19 1   
    26    16    17 1   
    27    16    18 1   
    28    17    19 1   
    29    17    27 2   
@<TRIPOS>SUBSTRUCTURE
     1 R8J         1 TEMP              0 ****  ****    0 ROOT
