@<TRIPOS>MOLECULE
R8J
   27    29     1     0     0
SMALL
No Charge or Current Charge


@<TRIPOS>ATOM
      1 OAA         -6.0990     0.4730     0.4370 o          1 R8J      -0.709500
      2 OAC         -5.7050    -1.3690    -0.5980 o          1 R8J      -0.709500
      3 CAD          5.9710    -0.1770     0.1020 cc         1 R8J       0.177900
      4 CAE         -3.3480     1.1280     0.5780 ca         1 R8J      -0.047000
      5 CAF         -1.9580     1.3270     0.5770 ca         1 R8J      -0.215000
      6 CAG          4.9650     0.7300    -0.0520 cd         1 R8J      -0.208000
      7 CAH         -2.9480    -0.9490    -0.5890 ca         1 R8J       0.370900
      8 CAI          2.3240     1.7170    -0.2440 cc         1 R8J       0.022000
      9 NAJ          5.4730    -1.4420     0.3030 nc         1 R8J      -0.374000
     10 NAK         -1.6060    -0.7560    -0.5900 nb         1 R8J      -0.685000
     11 NAL          4.1620    -1.3850     0.2850 nd         1 R8J      -0.165800
     12 NAM          0.9290     1.8650    -0.2570 na         1 R8J      -0.515200
     13 CAN         -5.3310    -0.3350    -0.0640 c          1 R8J       0.719600
     14 CAO         -3.8580    -0.0430    -0.0190 ca         1 R8J      -0.180600
     15 CAP         -1.1200     0.3550     0.0000 ca         1 R8J       0.420900
     16 CAQ          2.5300     0.3700    -0.0110 cd         1 R8J      -0.229300
     17 CAR          1.2960    -0.3910     0.1170 c          1 R8J       0.583200
     18 NAS          3.8560    -0.0740     0.0700 na         1 R8J       0.247900
     19 NAT          0.2970     0.5620    -0.0620 n          1 R8J      -0.251700
     20 HAD          7.0390    -0.0070     0.0830 h4         1 R8J       0.040100
     21 HAE         -4.0070     1.8670     1.0310 ha         1 R8J       0.136000
     22 HAF         -1.5360     2.2180     1.0310 ha         1 R8J       0.104000
     23 HAG          4.9810     1.7960    -0.2230 h4         1 R8J       0.164000
     24 HAH         -3.2890    -1.8660    -1.0700 h4         1 R8J       0.045100
     25 HAI          3.0030     2.5530    -0.4000 h4         1 R8J       0.220000
     26 HNAM         0.3360     2.6740    -0.4760 hn         1 R8J       0.515000
     27 OAB          1.1570    -1.5850     0.3510 o          1 R8J      -0.477000
@<TRIPOS>BOND
     1     1    13 1   
     2     2    13 1   
     3     3     6 2   
     4     3     9 1   
     5     3    20 1   
     6     4     5 ar  
     7     4    14 ar  
     8     4    21 1   
     9     5    15 ar  
    10     5    22 1   
    11     6    18 1   
    12     6    23 1   
    13     7    10 ar  
    14     7    14 ar  
    15     7    24 1   
    16     8    12 1   
    17     8    16 2   
    18     8    25 1   
    19     9    11 2   
    20    10    15 ar  
    21    11    18 1   
    22    12    19 1   
    23    12    26 1   
    24    13    14 1   
    25    15    19 1   
    26    16    17 1   
    27    16    18 1   
    28    17    19 1   
    29    17    27 2   
@<TRIPOS>SUBSTRUCTURE
     1 R8J         1 TEMP              0 ****  ****    0 ROOT
