@<TRIPOS>MOLECULE
R8N
   28    28     1     0     0
SMALL
abcg2


@<TRIPOS>ATOM
      1 O3          -3.4530     1.3410    16.7410 o          1 R8N      -0.512000
      2 C5          -6.2760     0.3180    17.0900 c3         1 R8N       0.181100
      3 C6          -5.2790     3.3370    15.4500 ca         1 R8N       0.232000
      4 C7          -5.9050     4.3880    14.8060 ca         1 R8N       0.137500
      5 C8          -6.2290     4.3270    13.4600 ca         1 R8N      -0.136000
      6 C9          -5.9250     3.1520    12.7870 ca         1 R8N       0.137500
      7 C10         -5.2900     2.1000    13.4160 ca         1 R8N       0.232000
      8 C11         -4.9460     2.1750    14.7630 ca         1 R8N      -0.341500
      9 C13         -5.9880     6.0530    11.2880 c3         1 R8N       0.043600
     10 C14         -6.0870     7.5390    11.0320 c3         1 R8N       0.171600
     11 F18         -5.0230     3.4800    16.7420 f          1 R8N      -0.125500
     12 S2          -4.1270     0.7990    15.5830 sy         1 R8N       1.165600
     13 O4          -3.3740     0.0710    14.5870 o          1 R8N      -0.512000
     14 N1          -5.3240    -0.1810    16.1050 n7         1 R8N      -0.866300
     15 F16         -6.2530     3.0220    11.5070 f          1 R8N      -0.137000
     16 F17         -6.1940     5.4770    15.5080 f          1 R8N      -0.137000
     17 S12         -7.0810     5.6610    12.7060 ss         1 R8N      -0.090000
     18 O15         -7.4490     7.8520    10.8590 oh         1 R8N      -0.657000
     19 H1          -6.9130    -0.5140    17.3780 h1         1 R8N       0.056033
     20 H2          -5.7510     0.6620    17.9770 h1         1 R8N       0.056033
     21 H3          -6.9110     1.1200    16.7080 h1         1 R8N       0.056033
     22 H4          -6.3010     5.4830    10.4150 h1         1 R8N       0.080700
     23 H5          -4.9620     5.7860    11.5390 h1         1 R8N       0.080700
     24 H6          -5.4910     7.7720    10.1400 h1         1 R8N       0.034700
     25 H7          -5.6460     8.0840    11.8730 h1         1 R8N       0.034700
     26 H8          -5.7420    -0.7120    15.3480 hn         1 R8N       0.489000
     27 H9          -7.5500     8.8080    10.8740 ho         1 R8N       0.451000
     28 F19         -5.0550     1.0060    12.7070 f          1 R8N      -0.125500
@<TRIPOS>BOND
     1     1    12 2   
     2     2    14 1   
     3     2    19 1   
     4     2    20 1   
     5     2    21 1   
     6     3     4 ar  
     7     3     8 ar  
     8     3    11 1   
     9     4     5 ar  
    10     4    16 1   
    11     5     6 ar  
    12     5    17 1   
    13     6     7 ar  
    14     6    15 1   
    15     7     8 ar  
    16     7    28 1   
    17     8    12 1   
    18     9    10 1   
    19     9    17 1   
    20     9    22 1   
    21     9    23 1   
    22    10    18 1   
    23    10    24 1   
    24    10    25 1   
    25    12    13 2   
    26    12    14 1   
    27    14    26 1   
    28    18    27 1   
@<TRIPOS>SUBSTRUCTURE
     1 R8N         1 TEMP              0 ****  ****    0 ROOT
