@<TRIPOS>MOLECULE
R8N
   28    28     1     0     0
SMALL
No Charge or Current Charge


@<TRIPOS>ATOM
      1 O3          -2.8850     0.9990    16.1840 o          1 R8N      -0.512000
      2 C5          -6.6190     0.0950    16.3490 c3         1 R8N       0.181100
      3 C6          -4.8960     3.2850    15.5800 ca         1 R8N       0.232000
      4 C7          -5.4910     4.4580    15.0720 ca         1 R8N       0.137500
      5 C8          -6.0740     4.4720    13.7910 ca         1 R8N      -0.136000
      6 C9          -6.0690     3.2870    13.0290 ca         1 R8N       0.137500
      7 C10         -5.4770     2.1090    13.5330 ca         1 R8N       0.232000
      8 C11         -4.8780     2.0980    14.8130 ca         1 R8N      -0.341500
      9 C13         -5.8260     6.3700    11.6610 c3         1 R8N       0.043600
     10 C14         -6.2660     7.7020    11.0170 c3         1 R8N       0.171600
     11 F18         -4.3590     3.3200    16.8220 f          1 R8N      -0.125500
     12 S2          -4.1170     0.6220    15.4910 sy         1 R8N       1.165600
     13 O4          -4.1650    -0.4990    14.5520 o          1 R8N      -0.512000
     14 N1          -5.1930     0.2380    16.7070 n7         1 R8N      -0.866300
     15 F16         -6.6540     3.2690    11.8080 f          1 R8N      -0.137000
     16 F17         -5.4990     5.5850    15.8230 f          1 R8N      -0.137000
     17 S12         -6.8290     5.9760    13.1660 ss         1 R8N      -0.090000
     18 O15         -7.5950     7.5930    10.4840 oh         1 R8N      -0.657000
     19 H1          -7.2020    -0.2390    17.2180 h1         1 R8N       0.056033
     20 H2          -7.0450     1.0500    16.0150 h1         1 R8N       0.056033
     21 H3          -6.7610    -0.6430    15.5470 h1         1 R8N       0.056033
     22 H4          -5.9230     5.5590    10.9290 h1         1 R8N       0.080700
     23 H5          -4.7730     6.4430    11.9560 h1         1 R8N       0.080700
     24 H6          -5.5580     7.9550    10.2170 h1         1 R8N       0.034700
     25 H7          -6.2150     8.4990    11.7710 h1         1 R8N       0.034700
     26 H8          -4.8280    -0.6690    16.9980 hn         1 R8N       0.489000
     27 H9          -7.8220     8.4700    10.0980 ho         1 R8N       0.451000
     28 F19         -5.5080     1.0000    12.7610 f          1 R8N      -0.125500
@<TRIPOS>BOND
     1     1    12 2   
     2     2    14 1   
     3     2    19 1   
     4     2    20 1   
     5     2    21 1   
     6     3     4 ar  
     7     3     8 ar  
     8     3    11 1   
     9     4     5 ar  
    10     4    16 1   
    11     5     6 ar  
    12     5    17 1   
    13     6     7 ar  
    14     6    15 1   
    15     7     8 ar  
    16     7    28 1   
    17     8    12 1   
    18     9    10 1   
    19     9    17 1   
    20     9    22 1   
    21     9    23 1   
    22    10    18 1   
    23    10    24 1   
    24    10    25 1   
    25    12    13 2   
    26    12    14 1   
    27    14    26 1   
    28    18    27 1   
@<TRIPOS>SUBSTRUCTURE
     1 R8N         1 TEMP              0 ****  ****    0 ROOT
