@<TRIPOS>MOLECULE
R8O
   54    58     1     0     0
SMALL
abcg2


@<TRIPOS>ATOM
      1 N1         -19.5590     8.1040    29.2250 ns         1 R8O      -0.469900
      2 N3         -16.1130     4.6290    27.3370 nb         1 R8O      -0.647000
      3 C4         -22.8060     6.5010    30.8840 c6         1 R8O       0.224100
      4 C5         -21.9310     8.4000    29.6330 c3         1 R8O       0.085800
      5 C6         -20.6100     8.9240    29.0740 c          1 R8O       0.588100
      6 C7         -18.2310     8.4400    28.8090 cx         1 R8O       0.051700
      7 C8         -17.0970     7.6970    29.4340 cx         1 R8O      -0.138400
      8 C10        -22.2850     6.2530    28.5590 c6         1 R8O       0.172800
      9 C13        -18.4430     5.1520    27.0550 ca         1 R8O      -0.080000
     10 C15        -15.8000     5.6110    26.5230 ca         1 R8O       0.347900
     11 C17        -16.3730     7.5150    25.0550 ca         1 R8O      -0.081000
     12 C20        -19.0910     7.0910    25.6020 ca         1 R8O      -0.111000
     13 C21        -18.1320     6.2260    26.1790 ca         1 R8O      -0.026000
     14 C22        -22.3510     4.1850    29.9600 ca         1 R8O      -0.050300
     15 O1         -19.5900     4.7210    29.6330 o          1 R8O      -0.560100
     16 C12        -20.2930     4.7670    28.6340 c          1 R8O       0.608100
     17 N2         -19.7910     4.8800    27.3710 ns         1 R8O      -0.161000
     18 C19        -18.6910     8.1180    24.7840 ca         1 R8O      -0.082000
     19 C18        -17.3250     8.3330    24.5020 ca         1 R8O      -0.109000
     20 C16        -16.7540     6.4520    25.9040 ca         1 R8O      -0.091000
     21 C14        -17.4240     4.4020    27.5930 ca         1 R8O       0.330900
     22 C11        -21.8230     4.7940    28.6850 c6         1 R8O      -0.092400
     23 C3         -22.8010     4.9970    31.0030 ca         1 R8O      -0.060300
     24 C2         -23.2850     4.4010    32.1670 ca         1 R8O      -0.100000
     25 C1         -23.3250     3.0220    32.3110 ca         1 R8O      -0.091000
     26 C23        -22.3880     2.7970    30.0950 ca         1 R8O      -0.088000
     27 C          -22.8710     2.2320    31.2610 ca         1 R8O       0.126000
     28 CL         -22.9130     0.4860    31.4190 cl         1 R8O      -0.207000
     29 N          -21.9620     6.9590    29.7910 n3         1 R8O      -0.744600
     30 O          -20.5420    10.0430    28.5630 o          1 R8O      -0.616100
     31 C9         -17.3090     9.1550    29.7610 cx         1 R8O      -0.138400
     32 H1         -19.7460     7.2020    29.6460 hn         1 R8O       0.349500
     33 H2         -22.4470     6.9440    31.8150 h1         1 R8O       0.049200
     34 H3         -23.8490     6.8390    30.7500 h1         1 R8O       0.049200
     35 H4         -22.0500     8.8670    30.6140 h1         1 R8O       0.065200
     36 H5         -22.7390     8.7840    28.9960 h1         1 R8O       0.065200
     37 H6         -18.1500     8.6940    27.7610 h1         1 R8O       0.091700
     38 H7         -16.2690     7.4200    28.7970 hc         1 R8O       0.078450
     39 H8         -17.3460     6.9720    30.1980 hc         1 R8O       0.078450
     40 H9         -21.7840     6.7380    27.7230 h1         1 R8O       0.046700
     41 H10        -23.3660     6.2750    28.3520 h1         1 R8O       0.046700
     42 H11        -14.7450     5.7790    26.3240 h4         1 R8O       0.022100
     43 H12        -15.3200     7.6730    24.8550 ha         1 R8O       0.120000
     44 H13        -20.1420     6.9630    25.8200 ha         1 R8O       0.109000
     45 H14        -20.4600     4.9590    26.6200 hn         1 R8O       0.150000
     46 H15        -19.4330     8.7800    24.3560 ha         1 R8O       0.120000
     47 H16        -17.0340     9.1510    23.8550 ha         1 R8O       0.121000
     48 H17        -17.6520     3.5810    28.2580 h4         1 R8O       0.039100
     49 H18        -22.2050     4.2330    27.8290 hc         1 R8O       0.069700
     50 H19        -23.6360     5.0260    32.9800 ha         1 R8O       0.119000
     51 H20        -23.6990     2.5680    33.2180 ha         1 R8O       0.133000
     52 H21        -22.0400     2.1660    29.2870 ha         1 R8O       0.129000
     53 H23        -16.6260     9.8830    29.3470 hc         1 R8O       0.078450
     54 H24        -17.7040     9.3930    30.7400 hc         1 R8O       0.078450
@<TRIPOS>BOND
     1     1     5 1   
     2     1     6 1   
     3     1    32 1   
     4     2    10 ar  
     5     2    21 ar  
     6     3    23 1   
     7     3    29 1   
     8     3    33 1   
     9     3    34 1   
    10     4     5 1   
    11     4    29 1   
    12     4    35 1   
    13     4    36 1   
    14     5    30 2   
    15     6     7 1   
    16     6    31 1   
    17     6    37 1   
    18     7    31 1   
    19     7    38 1   
    20     7    39 1   
    21     8    22 1   
    22     8    29 1   
    23     8    40 1   
    24     8    41 1   
    25     9    13 ar  
    26     9    17 1   
    27     9    21 ar  
    28    10    20 ar  
    29    10    42 1   
    30    11    19 ar  
    31    11    20 ar  
    32    11    43 1   
    33    12    13 ar  
    34    12    18 ar  
    35    12    44 1   
    36    13    20 ar  
    37    14    22 1   
    38    14    23 ar  
    39    14    26 ar  
    40    15    16 2   
    41    16    17 1   
    42    16    22 1   
    43    17    45 1   
    44    18    19 ar  
    45    18    46 1   
    46    19    47 1   
    47    21    48 1   
    48    22    49 1   
    49    23    24 ar  
    50    24    25 ar  
    51    24    50 1   
    52    25    27 ar  
    53    25    51 1   
    54    26    27 ar  
    55    26    52 1   
    56    27    28 1   
    57    31    53 1   
    58    31    54 1   
@<TRIPOS>SUBSTRUCTURE
     1 R8O         1 TEMP              0 ****  ****    0 ROOT
