@<TRIPOS>MOLECULE
R8O
   54    58     1     0     0
SMALL
No Charge or Current Charge


@<TRIPOS>ATOM
      1 N1         -19.6450     8.5050    29.2920 ns         1 R8O      -0.469900
      2 N3         -16.0310     4.3950    27.4160 nb         1 R8O      -0.647000
      3 C4         -22.8230     6.3330    31.1450 c6         1 R8O       0.224100
      4 C5         -21.9680     8.4230    30.0900 c3         1 R8O       0.085800
      5 C6         -20.8710     9.1300    29.2460 c          1 R8O       0.588100
      6 C7         -18.4670     8.9430    28.5960 cx         1 R8O       0.051700
      7 C8         -17.1700     8.2360    28.9010 cx         1 R8O      -0.138400
      8 C10        -22.2190     6.3180    28.7750 c6         1 R8O       0.172800
      9 C13        -18.3170     5.2350    27.2240 ca         1 R8O      -0.080000
     10 C15        -15.6520     5.2910    26.4790 ca         1 R8O       0.347900
     11 C17        -16.0900     7.1040    24.8980 ca         1 R8O      -0.081000
     12 C20        -18.8070     7.0690    25.6280 ca         1 R8O      -0.111000
     13 C21        -17.9090     6.1620    26.2360 ca         1 R8O      -0.026000
     14 C22        -22.4650     4.0750    29.9800 ca         1 R8O      -0.050300
     15 O1         -19.6650     4.1270    29.6680 o          1 R8O      -0.560100
     16 C12        -20.2930     4.6620    28.7610 c          1 R8O       0.608100
     17 N2         -19.6840     5.1830    27.6250 ns         1 R8O      -0.161000
     18 C19        -18.3460     7.9830    24.6650 ca         1 R8O      -0.082000
     19 C18        -16.9900     8.0010    24.3010 ca         1 R8O      -0.109000
     20 C16        -16.5470     6.1880    25.8650 ca         1 R8O      -0.091000
     21 C14        -17.3360     4.3740    27.7770 ca         1 R8O       0.330900
     22 C11        -21.8300     4.8220    28.8000 c6         1 R8O      -0.092400
     23 C3         -22.9150     4.7990    31.1080 ca         1 R8O      -0.060300
     24 C2         -23.4820     4.1080    32.1970 ca         1 R8O      -0.100000
     25 C1         -23.5980     2.7070    32.1650 ca         1 R8O      -0.091000
     26 C23        -22.5870     2.6720    29.9520 ca         1 R8O      -0.088000
     27 C          -23.1510     1.9920    31.0430 ca         1 R8O       0.126000
     28 Cl         -23.2970     0.2390    31.0050 cl         1 R8O      -0.207000
     29 N          -21.9390     6.9230    30.0990 n3         1 R8O      -0.744600
     30 O          -21.0730    10.1420    28.5840 o          1 R8O      -0.616100
     31 C9         -17.4000     9.6400    29.4030 cx         1 R8O      -0.138400
     32 H1         -19.6220     7.6580    29.8480 hn         1 R8O       0.349500
     33 H2         -22.4720     6.6380    32.1410 h1         1 R8O       0.049200
     34 H3         -23.8430     6.7290    31.0360 h1         1 R8O       0.049200
     35 H4         -21.8360     8.7960    31.1140 h1         1 R8O       0.065200
     36 H5         -22.9420     8.7860    29.7350 h1         1 R8O       0.065200
     37 H6         -18.6400     9.2750    27.5710 h1         1 R8O       0.091700
     38 H7         -16.4640     8.1020    28.0850 hc         1 R8O       0.078450
     39 H8         -17.1850     7.4250    29.6260 hc         1 R8O       0.078450
     40 H9         -21.6720     6.8370    27.9750 h1         1 R8O       0.046700
     41 H10        -23.2890     6.4110    28.5360 h1         1 R8O       0.046700
     42 H11        -14.5950     5.2890    26.2120 h4         1 R8O       0.022100
     43 H12        -15.0390     7.1250    24.6130 ha         1 R8O       0.120000
     44 H13        -19.8600     7.0850    25.8940 ha         1 R8O       0.109000
     45 H14        -20.3220     5.6130    26.9680 hn         1 R8O       0.150000
     46 H15        -19.0410     8.6810    24.2030 ha         1 R8O       0.120000
     47 H16        -16.6360     8.7110    23.5560 ha         1 R8O       0.121000
     48 H17        -17.5910     3.6210    28.5180 h4         1 R8O       0.039100
     49 H18        -22.1990     4.4460    27.8360 hc         1 R8O       0.069700
     50 H19        -23.8370     4.6580    33.0660 ha         1 R8O       0.119000
     51 H20        -24.0360     2.1770    33.0070 ha         1 R8O       0.133000
     52 H21        -22.2400     2.1080    29.0900 ha         1 R8O       0.129000
     53 H23        -16.8530    10.4470    28.9230 hc         1 R8O       0.078450
     54 H24        -17.5730     9.7770    30.4680 hc         1 R8O       0.078450
@<TRIPOS>BOND
     1     1     5 1   
     2     1     6 1   
     3     1    32 1   
     4     2    10 ar  
     5     2    21 ar  
     6     3    23 1   
     7     3    29 1   
     8     3    33 1   
     9     3    34 1   
    10     4     5 1   
    11     4    29 1   
    12     4    35 1   
    13     4    36 1   
    14     5    30 2   
    15     6     7 1   
    16     6    31 1   
    17     6    37 1   
    18     7    31 1   
    19     7    38 1   
    20     7    39 1   
    21     8    22 1   
    22     8    29 1   
    23     8    40 1   
    24     8    41 1   
    25     9    13 ar  
    26     9    17 1   
    27     9    21 ar  
    28    10    20 ar  
    29    10    42 1   
    30    11    19 ar  
    31    11    20 ar  
    32    11    43 1   
    33    12    13 ar  
    34    12    18 ar  
    35    12    44 1   
    36    13    20 ar  
    37    14    22 1   
    38    14    23 ar  
    39    14    26 ar  
    40    15    16 2   
    41    16    17 1   
    42    16    22 1   
    43    17    45 1   
    44    18    19 ar  
    45    18    46 1   
    46    19    47 1   
    47    21    48 1   
    48    22    49 1   
    49    23    24 ar  
    50    24    25 ar  
    51    24    50 1   
    52    25    27 ar  
    53    25    51 1   
    54    26    27 ar  
    55    26    52 1   
    56    27    28 1   
    57    31    53 1   
    58    31    54 1   
@<TRIPOS>SUBSTRUCTURE
     1 R8O         1 TEMP              0 ****  ****    0 ROOT
