@<TRIPOS>MOLECULE
R8P
   21    21     1     0     0
SMALL
No Charge or Current Charge


@<TRIPOS>ATOM
      1 C4          25.2620     2.0540    59.9000 ca         1 R8P      -0.047500
      2 C5          26.2590     1.0940    59.6060 ca         1 R8P      -0.179200
      3 C6          25.8640    -0.2320    59.3090 ca         1 R8P      -0.047500
      4 C7          24.5040    -0.5850    59.3100 ca         1 R8P      -0.109500
      5 O1          28.0060     2.6480    59.8710 o          1 R8P      -0.400500
      6 N           27.7090     1.4760    59.6060 no         1 R8P       0.694200
      7 O           28.5450     0.6010    59.3430 o          1 R8P      -0.400500
      8 C3          23.9040     1.6930    59.8980 ca         1 R8P      -0.109500
      9 C2          23.5120     0.3720    59.6050 ca         1 R8P      -0.035300
     10 C1          22.0290    -0.0100    59.6130 c3         1 R8P       0.213600
     11 O2          21.6430    -0.5270    58.3360 oh         1 R8P      -0.657000
     12 C           21.7010    -1.0560    60.6950 c3         1 R8P      -0.131100
     13 H1          25.5310     3.0840    60.1310 ha         1 R8P       0.151000
     14 H2          26.6050    -0.9950    59.0760 ha         1 R8P       0.151000
     15 H3          24.2180    -1.6080    59.0750 ha         1 R8P       0.134000
     16 H4          23.1530     2.4460    60.1280 ha         1 R8P       0.134000
     17 H5          21.4410     0.8920    59.8340 h1         1 R8P       0.042700
     18 H6          20.6780    -0.7050    58.3820 ho         1 R8P       0.452000
     19 H7          22.0020    -0.6870    61.6830 hc         1 R8P       0.047700
     20 H8          20.6240    -1.2620    60.7240 hc         1 R8P       0.047700
     21 H9          22.2270    -2.0000    60.5070 hc         1 R8P       0.047700
@<TRIPOS>BOND
     1     1     2 ar  
     2     1     8 ar  
     3     1    13 1   
     4     2     3 ar  
     5     2     6 1   
     6     3     4 ar  
     7     3    14 1   
     8     4     9 ar  
     9     4    15 1   
    10     5     6 1   
    11     6     7 1   
    12     8     9 ar  
    13     8    16 1   
    14     9    10 1   
    15    10    11 1   
    16    10    12 1   
    17    10    17 1   
    18    11    18 1   
    19    12    19 1   
    20    12    20 1   
    21    12    21 1   
@<TRIPOS>SUBSTRUCTURE
     1 R8P         1 TEMP              0 ****  ****    0 ROOT
