@<TRIPOS>MOLECULE
R8P
   21    21     1     0     0
SMALL
bcc


@<TRIPOS>ATOM
      1 C4          25.2380     1.8740    60.1620 ca         1 R8P      -0.065500
      2 C5          26.1990     1.0360    59.6130 ca         1 R8P      -0.179200
      3 C6          25.8510    -0.1590    59.0010 ca         1 R8P      -0.065500
      4 C7          24.5150    -0.5190    58.9380 ca         1 R8P      -0.127500
      5 O1          27.8760     2.4750    60.1990 o          1 R8P      -0.210500
      6 N           27.5980     1.4200    59.6790 no         1 R8P       0.314200
      7 O           28.4190     0.6660    59.2110 o          1 R8P      -0.210500
      8 C3          23.9100     1.4980    60.0890 ca         1 R8P      -0.127500
      9 C2          23.5310     0.3020    59.4810 ca         1 R8P      -0.035300
     10 C1          22.0750    -0.0850    59.4710 c3         1 R8P       0.190400
     11 O2          21.8660    -1.0150    58.4370 oh         1 R8P      -0.594800
     12 C           21.6730    -0.6430    60.8350 c3         1 R8P      -0.131100
     13 H1          25.5080     2.8070    60.6350 ha         1 R8P       0.169000
     14 H2          26.6010    -0.8080    58.5740 ha         1 R8P       0.169000
     15 H3          24.2490    -1.4500    58.4600 ha         1 R8P       0.152000
     16 H4          23.1550     2.1510    60.5090 ha         1 R8P       0.152000
     17 H5          21.4890     0.8280    59.2930 h1         1 R8P       0.042700
     18 H6          20.9640    -1.3420    58.5010 ho         1 R8P       0.413000
     19 H7          21.8270     0.0980    61.6190 hc         1 R8P       0.047700
     20 H8          20.6150    -0.9120    60.8420 hc         1 R8P       0.047700
     21 H9          22.2570    -1.5300    61.0830 hc         1 R8P       0.047700
@<TRIPOS>BOND
     1     1     2 ar  
     2     1     8 ar  
     3     1    13 1   
     4     2     3 ar  
     5     2     6 1   
     6     3     4 ar  
     7     3    14 1   
     8     4     9 ar  
     9     4    15 1   
    10     5     6 1   
    11     6     7 1   
    12     8     9 ar  
    13     8    16 1   
    14     9    10 1   
    15    10    11 1   
    16    10    12 1   
    17    10    17 1   
    18    11    18 1   
    19    12    19 1   
    20    12    20 1   
    21    12    21 1   
@<TRIPOS>SUBSTRUCTURE
     1 R8P         1 TEMP              0 ****  ****    0 ROOT
