@<TRIPOS>MOLECULE
R8Q
   30    30     1     0     0
SMALL
No Charge or Current Charge


@<TRIPOS>ATOM
      1 C1          16.3960     4.2040    14.6970 ca         1 R8Q      -0.334500
      2 C2          15.8510     4.2020    13.3920 ca         1 R8Q       0.227000
      3 C3          15.2530     5.3660    12.8640 ca         1 R8Q       0.147500
      4 C4          15.1880     6.5500    13.6240 ca         1 R8Q      -0.127000
      5 C5          15.7170     6.5500    14.9280 ca         1 R8Q       0.147500
      6 C6          16.3170     5.3900    15.4610 ca         1 R8Q       0.227000
      7 C16         15.4900     8.4580    11.5160 c3         1 R8Q       0.058600
      8 C17         15.0110     9.7670    10.8580 c3         1 R8Q      -0.068400
      9 C18         15.8640    10.1750     9.6420 c3         1 R8Q      -0.090100
     10 F14         15.6520     7.6760    15.6780 f          1 R8Q      -0.134000
     11 F12         16.8010     5.4370    16.7250 f          1 R8Q      -0.124500
     12 S7          17.1620     2.7460    15.4070 sy         1 R8Q       1.166600
     13 O10         18.3540     3.1510    16.1520 o          1 R8Q      -0.511500
     14 N9          16.0450     2.3350    16.5760 n7         1 R8Q      -0.868300
     15 C19         14.6400     2.1560    16.1580 c3         1 R8Q       0.182100
     16 O8          17.1810     1.6240    14.4680 o          1 R8Q      -0.511500
     17 F13         14.7200     5.3340    11.6190 f          1 R8Q      -0.134000
     18 F11         15.8780     3.0920    12.6200 f          1 R8Q      -0.124500
     19 S15         14.4250     8.0370    12.9650 ss         1 R8Q      -0.149000
     20 H1          15.4520     7.6410    10.7860 h1         1 R8Q       0.070200
     21 H2          16.5260     8.5710    11.8600 h1         1 R8Q       0.070200
     22 H3          15.0330    10.5740    11.6000 hc         1 R8Q       0.054200
     23 H4          13.9670     9.6500    10.5410 hc         1 R8Q       0.054200
     24 H5          15.4880    11.1090     9.2060 hc         1 R8Q       0.038033
     25 H6          16.9090    10.3310     9.9360 hc         1 R8Q       0.038033
     26 H7          15.8340     9.3990     8.8670 hc         1 R8Q       0.038033
     27 H8          16.4200     1.4370    16.8840 hn         1 R8Q       0.490000
     28 H9          14.0280     1.8080    17.0020 h1         1 R8Q       0.056033
     29 H10         14.2040     3.1000    15.8040 h1         1 R8Q       0.056033
     30 H11         14.5510     1.4140    15.3520 h1         1 R8Q       0.056033
@<TRIPOS>BOND
     1     1     2 ar  
     2     1     6 ar  
     3     1    12 1   
     4     2     3 ar  
     5     2    18 1   
     6     3     4 ar  
     7     3    17 1   
     8     4     5 ar  
     9     4    19 1   
    10     5     6 ar  
    11     5    10 1   
    12     6    11 1   
    13     7     8 1   
    14     7    19 1   
    15     7    20 1   
    16     7    21 1   
    17     8     9 1   
    18     8    22 1   
    19     8    23 1   
    20     9    24 1   
    21     9    25 1   
    22     9    26 1   
    23    12    13 2   
    24    12    14 1   
    25    12    16 2   
    26    14    15 1   
    27    14    27 1   
    28    15    28 1   
    29    15    29 1   
    30    15    30 1   
@<TRIPOS>SUBSTRUCTURE
     1 R8Q         1 TEMP              0 ****  ****    0 ROOT
