@<TRIPOS>MOLECULE
R8Q
   30    30     1     0     0
SMALL
bcc


@<TRIPOS>ATOM
      1 C1          16.2900     4.2540    14.6130 ca         1 R8Q      -0.334500
      2 C2          15.9620     4.1780    13.2620 ca         1 R8Q       0.191900
      3 C3          15.3240     5.2270    12.6290 ca         1 R8Q       0.112400
      4 C4          14.9970     6.3930    13.3060 ca         1 R8Q      -0.000100
      5 C5          15.3030     6.4550    14.6550 ca         1 R8Q       0.112400
      6 C6          15.9350     5.4070    15.3020 ca         1 R8Q       0.191900
      7 C16         15.4170     8.2710    11.3070 c3         1 R8Q       0.010700
      8 C17         15.0720     9.6780    10.8440 c3         1 R8Q      -0.068400
      9 C18         16.0650    10.1600     9.7940 c3         1 R8Q      -0.090100
     10 F14         14.9960     7.5360    15.3580 f          1 R8Q      -0.098900
     11 F12         16.1730     5.5460    16.5970 f          1 R8Q      -0.089400
     12 S7          17.1300     2.8900    15.4350 sy         1 R8Q       1.308200
     13 O10         17.7930     3.4480    16.5920 o          1 R8Q      -0.582300
     14 N9          15.9510     1.8890    15.9540 n7         1 R8Q      -0.813100
     15 C19         14.9840     2.3670    16.9350 c3         1 R8Q       0.182100
     16 O8          17.8970     2.1760    14.4410 o          1 R8Q      -0.582300
     17 F13         15.0210     5.1020    11.3430 f          1 R8Q      -0.098900
     18 F11         16.2190     3.0900    12.5520 f          1 R8Q      -0.089400
     19 S15         14.1630     7.7260    12.5240 ss         1 R8Q      -0.228000
     20 H1          15.4310     7.5810    10.4640 h1         1 R8Q       0.070200
     21 H2          16.3930     8.2550    11.7920 h1         1 R8Q       0.070200
     22 H3          15.0760    10.3550    11.7000 hc         1 R8Q       0.054200
     23 H4          14.0610     9.6970    10.4290 hc         1 R8Q       0.054200
     24 H5          15.8260    11.1730     9.4700 hc         1 R8Q       0.038033
     25 H6          17.0830    10.1690    10.1870 hc         1 R8Q       0.038033
     26 H7          16.0530     9.5170     8.9130 hc         1 R8Q       0.038033
     27 H8          15.5500     1.3450    15.1980 hn         1 R8Q       0.434800
     28 H9          14.3670     1.5200    17.2220 h1         1 R8Q       0.056033
     29 H10         15.4960     2.7260    17.8230 h1         1 R8Q       0.056033
     30 H11         14.3300     3.1520    16.5480 h1         1 R8Q       0.056033
@<TRIPOS>BOND
     1     1     2 ar  
     2     1     6 ar  
     3     1    12 1   
     4     2     3 ar  
     5     2    18 1   
     6     3     4 ar  
     7     3    17 1   
     8     4     5 ar  
     9     4    19 1   
    10     5     6 ar  
    11     5    10 1   
    12     6    11 1   
    13     7     8 1   
    14     7    19 1   
    15     7    20 1   
    16     7    21 1   
    17     8     9 1   
    18     8    22 1   
    19     8    23 1   
    20     9    24 1   
    21     9    25 1   
    22     9    26 1   
    23    12    13 2   
    24    12    14 1   
    25    12    16 2   
    26    14    15 1   
    27    14    27 1   
    28    15    28 1   
    29    15    29 1   
    30    15    30 1   
@<TRIPOS>SUBSTRUCTURE
     1 R8Q         1 TEMP              0 ****  ****    0 ROOT
