@<TRIPOS>MOLECULE
R8R
   44    48     1     0     0
SMALL
abcg2


@<TRIPOS>ATOM
      1 C18        -41.7800   -31.4700     1.3770 cy         1 R8R      -0.092400
      2 N1         -45.2540   -28.6980     2.6750 nh         1 R8R      -0.758300
      3 C16        -43.6030   -30.2660     1.1280 cy         1 R8R      -0.045000
      4 C17        -42.5020   -30.3990     2.2310 cy         1 R8R      -0.072900
      5 C15        -43.8400   -28.8390     0.6520 c6         1 R8R      -0.078400
      6 C14        -44.3260   -27.9650     1.8060 c6         1 R8R       0.226800
      7 C13        -44.2320   -27.6400     5.8810 ca         1 R8R       0.183900
      8 C12        -46.2050   -28.5940     6.2180 ca         1 R8R       0.200500
      9 C11        -48.7070   -29.4030     3.6460 ca         1 R8R      -0.039000
     10 C10        -50.0220   -29.7680     3.9080 ca         1 R8R      -0.178000
     11 C9         -50.4400   -29.9210     5.2240 ca         1 R8R       0.168000
     12 C8         -49.6210   -29.7070     6.3140 ca         1 R8R      -0.180000
     13 C7         -48.3130   -29.3320     6.0310 ca         1 R8R       0.001800
     14 C6         -47.8140   -29.2020     4.7030 cp         1 R8R      -0.026000
     15 C5         -46.4310   -28.7690     4.8340 cp         1 R8R      -0.220000
     16 C4         -45.3330   -28.4270     3.9980 ca         1 R8R       0.471900
     17 C3         -45.9490   -29.8200     2.0570 c6         1 R8R       0.232800
     18 C19        -42.7220   -31.1430     0.1920 cy         1 R8R      -0.072900
     19 C2         -44.9880   -30.8740     1.4540 c6         1 R8R      -0.190700
     20 C1         -44.9050   -32.1600     2.3120 c          1 R8R       0.712000
     21 O1         -44.6560   -33.2290     1.6970 o          1 R8R      -0.727000
     22 N2         -47.3140   -28.9870     6.9160 na         1 R8R      -0.336300
     23 N3         -45.1170   -28.0620     6.7830 nb         1 R8R      -0.272000
     24 N4         -44.2820   -27.7790     4.5630 nb         1 R8R      -0.307000
     25 H16        -41.9240   -32.4800     1.7570 hc         1 R8R       0.045200
     26 H15        -40.7150   -31.3080     1.2040 hc         1 R8R       0.045200
     27 H13        -42.8440   -30.7110     3.2150 hc         1 R8R       0.046950
     28 H14        -41.9210   -29.4820     2.3380 hc         1 R8R       0.046950
     29 H11        -42.9170   -28.4080     0.2590 hc         1 R8R       0.031200
     30 H12        -44.5650   -28.8460    -0.1680 hc         1 R8R       0.031200
     31 H10        -43.4830   -27.6430     2.4090 h1         1 R8R       0.044200
     32 H9         -44.8240   -27.0660     1.4260 h1         1 R8R       0.044200
     33 H8         -43.3560   -27.1310     6.2720 h5         1 R8R       0.030100
     34 H6         -48.4030   -29.2630     2.6220 ha         1 R8R       0.125000
     35 H5         -50.7270   -29.9270     3.1030 ha         1 R8R       0.122000
     36 H4         -49.9900   -29.8060     7.3260 ha         1 R8R       0.124000
     37 H3         -46.6120   -29.4450     1.2720 h1         1 R8R       0.048700
     38 H2         -46.5460   -30.3090     2.8120 h1         1 R8R       0.048700
     39 H18        -42.2420   -30.5480    -0.5870 hc         1 R8R       0.046950
     40 H17        -43.2250   -31.9920    -0.2670 hc         1 R8R       0.046950
     41 H1         -45.4120   -31.1720     0.4910 hc         1 R8R       0.039700
     42 H7         -47.4180   -28.9040     7.9150 hn         1 R8R       0.355000
     43 O2         -45.0850   -32.0530     3.5530 o          1 R8R      -0.727000
     44 F1         -51.7320   -30.2820     5.4520 f          1 R8R      -0.200000
@<TRIPOS>BOND
     1     1     4 1   
     2     1    18 1   
     3     1    25 1   
     4     1    26 1   
     5     2     6 1   
     6     2    16 1   
     7     2    17 1   
     8     3     4 1   
     9     3     5 1   
    10     3    18 1   
    11     3    19 1   
    12     4    27 1   
    13     4    28 1   
    14     5     6 1   
    15     5    29 1   
    16     5    30 1   
    17     6    31 1   
    18     6    32 1   
    19     7    23 ar  
    20     7    24 ar  
    21     7    33 1   
    22     8    15 ar  
    23     8    22 1   
    24     8    23 ar  
    25     9    10 ar  
    26     9    14 ar  
    27     9    34 1   
    28    10    11 ar  
    29    10    35 1   
    30    11    12 ar  
    31    11    44 1   
    32    12    13 ar  
    33    12    36 1   
    34    13    14 ar  
    35    13    22 1   
    36    14    15 1   
    37    15    16 ar  
    38    16    24 ar  
    39    17    19 1   
    40    17    37 1   
    41    17    38 1   
    42    18    39 1   
    43    18    40 1   
    44    19    20 1   
    45    19    41 1   
    46    20    21 1   
    47    20    43 1   
    48    22    42 1   
@<TRIPOS>SUBSTRUCTURE
     1 R8R         1 TEMP              0 ****  ****    0 ROOT
