@<TRIPOS>MOLECULE
R8R
   44    48     1     0     0
SMALL
No Charge or Current Charge


@<TRIPOS>ATOM
      1 C18        -41.6410   -31.2760     1.2590 cy         1 R8R      -0.092400
      2 N1         -45.4880   -28.9200     2.7350 nh         1 R8R      -0.758300
      3 C16        -43.5190   -30.2050     1.1010 cy         1 R8R      -0.045000
      4 C17        -42.2390   -30.0320     2.0000 cy         1 R8R      -0.072900
      5 C15        -44.0920   -28.8510     0.6040 c6         1 R8R      -0.078400
      6 C14        -44.7280   -28.0560     1.7750 c6         1 R8R       0.226800
      7 C13        -44.0810   -28.3150     5.9770 ca         1 R8R       0.183900
      8 C12        -46.2770   -28.7180     6.3840 ca         1 R8R       0.200500
      9 C11        -48.7460   -29.1750     3.6450 ca         1 R8R      -0.039000
     10 C10        -50.1360   -29.3790     3.8000 ca         1 R8R      -0.178000
     11 C9         -50.7120   -29.4620     5.0890 ca         1 R8R       0.168000
     12 C8         -49.9180   -29.3310     6.2450 ca         1 R8R      -0.180000
     13 C7         -48.5480   -29.1390     6.0560 ca         1 R8R       0.001800
     14 C6         -47.9470   -29.0790     4.8040 cp         1 R8R      -0.026000
     15 C5         -46.5170   -28.8430     5.0120 cp         1 R8R      -0.220000
     16 C4         -45.4180   -28.7140     4.1300 ca         1 R8R       0.471900
     17 C3         -45.8950   -30.2580     2.2240 c6         1 R8R       0.232800
     18 C19        -42.5810   -30.9170     0.0600 cy         1 R8R      -0.072900
     19 C2         -44.7210   -31.0900     1.6330 c6         1 R8R      -0.190700
     20 C1         -44.4280   -32.2950     2.5640 c          1 R8R       0.712000
     21 O1         -44.4770   -33.4080     2.0580 o          1 R8R      -0.727000
     22 N2         -47.5240   -28.9260     6.9860 na         1 R8R      -0.336300
     23 N3         -45.0660   -28.4530     6.8920 nb         1 R8R      -0.272000
     24 N4         -44.1940   -28.4350     4.6340 nb         1 R8R      -0.307000
     25 H16        -41.8510   -32.2410     1.7310 hc         1 R8R       0.045200
     26 H15        -40.5670   -31.2290     1.0480 hc         1 R8R       0.045200
     27 H13        -42.3730   -30.1250     3.0810 hc         1 R8R       0.046950
     28 H14        -41.6800   -29.1070     1.8150 hc         1 R8R       0.046950
     29 H11        -43.3130   -28.2390     0.1300 hc         1 R8R       0.031200
     30 H12        -44.8490   -29.0330    -0.1710 hc         1 R8R       0.031200
     31 H10        -43.9180   -27.5260     2.2950 h1         1 R8R       0.044200
     32 H9         -45.3900   -27.2790     1.3650 h1         1 R8R       0.044200
     33 H8         -43.0870   -28.0940     6.3630 h5         1 R8R       0.030100
     34 H6         -48.3140   -29.0770     2.6540 ha         1 R8R       0.125000
     35 H5         -50.7710   -29.4620     2.9220 ha         1 R8R       0.122000
     36 H4         -50.3570   -29.3700     7.2380 ha         1 R8R       0.124000
     37 H3         -46.6440   -30.1130     1.4310 h1         1 R8R       0.048700
     38 H2         -46.4030   -30.8370     3.0090 h1         1 R8R       0.048700
     39 H18        -42.1220   -30.2440    -0.6740 hc         1 R8R       0.046950
     40 H17        -43.0110   -31.7680    -0.4780 hc         1 R8R       0.046950
     41 H1         -45.1460   -31.5480     0.7290 hc         1 R8R       0.039700
     42 H7         -47.6630   -28.9130     7.9890 hn         1 R8R       0.355000
     43 O2         -43.9000   -32.0970     3.6470 o          1 R8R      -0.727000
     44 F1         -52.0440   -29.6490     5.2130 f          1 R8R      -0.200000
@<TRIPOS>BOND
     1     1     4 1   
     2     1    18 1   
     3     1    25 1   
     4     1    26 1   
     5     2     6 1   
     6     2    16 1   
     7     2    17 1   
     8     3     4 1   
     9     3     5 1   
    10     3    18 1   
    11     3    19 1   
    12     4    27 1   
    13     4    28 1   
    14     5     6 1   
    15     5    29 1   
    16     5    30 1   
    17     6    31 1   
    18     6    32 1   
    19     7    23 ar  
    20     7    24 ar  
    21     7    33 1   
    22     8    15 ar  
    23     8    22 1   
    24     8    23 ar  
    25     9    10 ar  
    26     9    14 ar  
    27     9    34 1   
    28    10    11 ar  
    29    10    35 1   
    30    11    12 ar  
    31    11    44 1   
    32    12    13 ar  
    33    12    36 1   
    34    13    14 ar  
    35    13    22 1   
    36    14    15 1   
    37    15    16 ar  
    38    16    24 ar  
    39    17    19 1   
    40    17    37 1   
    41    17    38 1   
    42    18    39 1   
    43    18    40 1   
    44    19    20 1   
    45    19    41 1   
    46    20    21 1   
    47    20    43 1   
    48    22    42 1   
@<TRIPOS>SUBSTRUCTURE
     1 R8R         1 TEMP              0 ****  ****    0 ROOT
