@<TRIPOS>MOLECULE
R8S
   18    18     1     0     0
SMALL
No Charge or Current Charge


@<TRIPOS>ATOM
      1 C4          16.1940     1.7830    48.9500 ca         1 R8S       0.438900
      2 N1          17.4960     1.6510    49.2470 nb         1 R8S      -0.352000
      3 N2          15.6700     0.7620    48.1430 nu         1 R8S      -0.739900
      4 N3          14.2730     0.6790    47.6800 n8         1 R8S      -0.680000
      5 N           15.3720     2.7770    49.3450 nb         1 R8S      -0.223000
      6 C3          15.9190     3.7330    50.1170 ca         1 R8S       0.155900
      7 C2          17.2720     3.6860    50.4830 ca         1 R8S      -0.302000
      8 C1          18.0400     2.6110    50.0200 ca         1 R8S       0.390300
      9 O           19.3670     2.5680    50.3820 os         1 R8S      -0.455300
     10 C           20.2230     1.4940    49.9450 c3         1 R8S       0.159900
     11 H1          16.3640     0.0390    47.8840 hn         1 R8S       0.496000
     12 H2          14.1360     0.7510    46.6570 hn         1 R8S       0.401000
     13 H3          13.7320    -0.1300    48.0340 hn         1 R8S       0.401000
     14 H4          15.2670     4.5420    50.4430 h4         1 R8S       0.022100
     15 H5          17.7120     4.4590    51.1060 ha         1 R8S       0.145000
     16 H6          21.2400     1.6340    50.3330 h1         1 R8S       0.047033
     17 H7          19.8530     0.5260    50.3070 h1         1 R8S       0.047033
     18 H8          20.2800     1.4580    48.8490 h1         1 R8S       0.047033
@<TRIPOS>BOND
     1     1     2 ar  
     2     1     3 1   
     3     1     5 ar  
     4     2     8 ar  
     5     3     4 1   
     6     3    11 1   
     7     4    12 1   
     8     4    13 1   
     9     5     6 ar  
    10     6     7 ar  
    11     6    14 1   
    12     7     8 ar  
    13     7    15 1   
    14     8     9 1   
    15     9    10 1   
    16    10    16 1   
    17    10    17 1   
    18    10    18 1   
@<TRIPOS>SUBSTRUCTURE
     1 R8S         1 TEMP              0 ****  ****    0 ROOT
