@<TRIPOS>MOLECULE
R8S
   18    18     1     0     0
SMALL
abcg2


@<TRIPOS>ATOM
      1 C4          16.1960     1.7940    48.9470 ca         1 R8S       0.438900
      2 N1          17.4990     1.6790    49.2560 nb         1 R8S      -0.352000
      3 N2          15.7230     0.8060    48.1620 nu         1 R8S      -0.739900
      4 N3          14.4050     0.7430    47.7640 n8         1 R8S      -0.680000
      5 N           15.3870     2.7710    49.3440 nb         1 R8S      -0.223000
      6 C3          15.9500     3.7040    50.1090 ca         1 R8S       0.155900
      7 C2          17.2710     3.7010    50.4900 ca         1 R8S      -0.302000
      8 C1          18.0180     2.6150    50.0120 ca         1 R8S       0.390300
      9 O           19.2980     2.5510    50.3510 os         1 R8S      -0.455300
     10 C           20.0710     1.4530    49.8810 c3         1 R8S       0.159900
     11 H1          16.3740     0.0830    47.8920 hn         1 R8S       0.496000
     12 H2          14.3600     0.7280    46.7540 hn         1 R8S       0.401000
     13 H3          13.9930    -0.1170    48.1030 hn         1 R8S       0.401000
     14 H4          15.2970     4.5060    50.4380 h4         1 R8S       0.022100
     15 H5          17.7000     4.4730    51.1100 ha         1 R8S       0.145000
     16 H6          21.0730     1.6070    50.2730 h1         1 R8S       0.047033
     17 H7          19.6830     0.5020    50.2460 h1         1 R8S       0.047033
     18 H8          20.1090     1.4230    48.7920 h1         1 R8S       0.047033
@<TRIPOS>BOND
     1     1     2 ar  
     2     1     3 1   
     3     1     5 ar  
     4     2     8 ar  
     5     3     4 1   
     6     3    11 1   
     7     4    12 1   
     8     4    13 1   
     9     5     6 ar  
    10     6     7 ar  
    11     6    14 1   
    12     7     8 ar  
    13     7    15 1   
    14     8     9 1   
    15     9    10 1   
    16    10    16 1   
    17    10    17 1   
    18    10    18 1   
@<TRIPOS>SUBSTRUCTURE
     1 R8S         1 TEMP              0 ****  ****    0 ROOT
