@<TRIPOS>MOLECULE
R8T
   40    40     1     0     0
SMALL
abcg2


@<TRIPOS>ATOM
      1 C1          42.2240    49.5530    53.1770 c3         1 R8T      -0.179100
      2 C2          42.5490    50.3330    51.9300 c          1 R8T       0.598100
      3 O1          43.0020    51.4760    51.9960 o          1 R8T      -0.635100
      4 N1          42.3020    49.7120    50.7690 ns         1 R8T      -0.500900
      5 C3          42.4590    50.3030    49.4510 c6         1 R8T       0.063700
      6 C4          41.2880    49.8210    48.5760 c6         1 R8T       0.161300
      7 O2          40.1050    50.5330    48.8800 oh         1 R8T      -0.649000
      8 C5          41.5890    49.9820    47.0880 c6         1 R8T      -0.046400
      9 C6          42.5480    51.1330    46.8220 c6         1 R8T      -0.196700
     10 C7          42.6690    51.5100    45.3260 c          1 R8T       0.724000
     11 O3          43.7490    52.0180    44.9610 o          1 R8T      -0.734000
     12 O4          41.6660    51.3110    44.6100 o          1 R8T      -0.734000
     13 C8          43.9030    50.8210    47.4690 c6         1 R8T      -0.050400
     14 C9          43.7980    49.9950    48.7660 c6         1 R8T      -0.099700
     15 C10         45.0060    50.2250    49.6890 c3         1 R8T       0.195300
     16 O5          45.0920    51.5620    50.1250 oh         1 R8T      -0.749000
     17 C11         46.3340    49.9010    48.9960 c3         1 R8T       0.173300
     18 O6          46.2520    48.5640    48.5450 oh         1 R8T      -0.653000
     19 C12         47.5470    50.1190    49.8890 c3         1 R8T       0.130600
     20 O7          47.4410    49.3350    51.0540 oh         1 R8T      -0.712000
     21 H1          41.4080    50.0480    53.7050 hc         1 R8T       0.055033
     22 H2          41.9310    48.5230    52.9820 hc         1 R8T       0.055033
     23 H3          43.0870    49.5530    53.8400 hc         1 R8T       0.055033
     24 H4          42.0060    48.7480    50.8070 hn         1 R8T       0.303500
     25 H5          42.3620    51.3860    49.5700 h1         1 R8T       0.095700
     26 H6          41.1420    48.7480    48.7800 h1         1 R8T      -0.001300
     27 H7          39.9380    50.4520    49.8250 ho         1 R8T       0.420000
     28 H8          40.6510    50.1110    46.5490 hc         1 R8T       0.058200
     29 H19         42.0320    49.0540    46.7150 hc         1 R8T       0.058200
     30 H20         42.1320    52.0270    47.3090 hc         1 R8T       0.039700
     31 H9          44.5230    50.2700    46.7590 hc         1 R8T       0.052200
     32 H10         44.4260    51.7560    47.6750 hc         1 R8T       0.052200
     33 H11         43.7890    48.9290    48.5150 hc         1 R8T       0.054700
     34 H12         44.9130    49.5450    50.5470 h1         1 R8T       0.031700
     35 H13         44.3810    51.7120    50.7710 ho         1 R8T       0.538000
     36 H14         46.4590    50.5930    48.1510 h1         1 R8T       0.062700
     37 H15         47.0180    48.3850    47.9920 ho         1 R8T       0.435000
     38 H16         48.4440    49.8550    49.3080 h1         1 R8T       0.020200
     39 H17         47.6300    51.1870    50.1160 h1         1 R8T       0.020200
     40 H18         48.2060    49.5150    51.6070 ho         1 R8T       0.487000
@<TRIPOS>BOND
     1     1     2 1   
     2     1    21 1   
     3     1    22 1   
     4     1    23 1   
     5     2     3 2   
     6     2     4 1   
     7     4     5 1   
     8     4    24 1   
     9     5     6 1   
    10     5    14 1   
    11     5    25 1   
    12     6     7 1   
    13     6     8 1   
    14     6    26 1   
    15     7    27 1   
    16     8     9 1   
    17     8    28 1   
    18     8    29 1   
    19     9    10 1   
    20     9    13 1   
    21     9    30 1   
    22    10    11 1   
    23    10    12 1   
    24    13    14 1   
    25    13    31 1   
    26    13    32 1   
    27    14    15 1   
    28    14    33 1   
    29    15    16 1   
    30    15    17 1   
    31    15    34 1   
    32    16    35 1   
    33    17    18 1   
    34    17    19 1   
    35    17    36 1   
    36    18    37 1   
    37    19    20 1   
    38    19    38 1   
    39    19    39 1   
    40    20    40 1   
@<TRIPOS>SUBSTRUCTURE
     1 R8T         1 TEMP              0 ****  ****    0 ROOT
