@<TRIPOS>MOLECULE
R8T
   40    40     1     0     0
SMALL
No Charge or Current Charge


@<TRIPOS>ATOM
      1 C1          42.4670    49.3830    53.2050 c3         1 R8T      -0.179100
      2 C2          42.6600    50.2620    51.9780 c          1 R8T       0.598100
      3 O1          43.1060    51.3990    52.0390 o          1 R8T      -0.635100
      4 N1          42.3160    49.6800    50.7810 ns         1 R8T      -0.500900
      5 C3          42.3810    50.3260    49.4510 c6         1 R8T       0.063700
      6 C4          41.2110    49.7920    48.5520 c6         1 R8T       0.161300
      7 O2          39.9930    50.4680    48.8890 oh         1 R8T      -0.649000
      8 C5          41.4940    49.9270    47.0260 c6         1 R8T      -0.046400
      9 C6          42.4250    51.1270    46.7110 c6         1 R8T      -0.196700
     10 C7          42.5540    51.3880    45.1910 c          1 R8T       0.724000
     11 O3          43.0200    50.5050    44.4860 o          1 R8T      -0.734000
     12 O4          42.1630    52.4620    44.7590 o          1 R8T      -0.734000
     13 C8          43.8110    50.9560    47.4110 c6         1 R8T      -0.050400
     14 C9          43.7580    50.1190    48.7370 c6         1 R8T      -0.099700
     15 C10         45.0150    50.3760    49.6480 c3         1 R8T       0.195300
     16 O5          44.9730    51.7090    50.1900 oh         1 R8T      -0.749000
     17 C11         46.4030    50.1170    48.9580 c3         1 R8T       0.173300
     18 O6          46.4660    48.7910    48.4020 oh         1 R8T      -0.653000
     19 C12         47.6140    50.2590    49.9260 c3         1 R8T       0.130600
     20 O7          47.6680    49.1440    50.8400 oh         1 R8T      -0.712000
     21 H1          41.4250    49.0430    53.2400 hc         1 R8T       0.055033
     22 H2          43.0130    48.4440    53.0610 hc         1 R8T       0.055033
     23 H3          42.7620    49.8840    54.1330 hc         1 R8T       0.055033
     24 H4          41.9760    48.7260    50.8320 hn         1 R8T       0.303500
     25 H5          42.2360    51.4090    49.5890 h1         1 R8T       0.095700
     26 H6          41.0820    48.7180    48.7530 h1         1 R8T      -0.001300
     27 H7          39.8800    50.3640    49.8580 ho         1 R8T       0.420000
     28 H8          40.5500    50.0200    46.4720 hc         1 R8T       0.058200
     29 H19         41.9630    49.0020    46.6640 hc         1 R8T       0.058200
     30 H20         41.9550    52.0240    47.1400 hc         1 R8T       0.039700
     31 H9          44.5170    50.4690    46.7240 hc         1 R8T       0.052200
     32 H10         44.2270    51.9560    47.6010 hc         1 R8T       0.052200
     33 H11         43.8130    49.0560    48.4650 hc         1 R8T       0.054700
     34 H12         44.9520    49.6600    50.4790 h1         1 R8T       0.031700
     35 H13         44.2610    51.6860    50.8940 ho         1 R8T       0.538000
     36 H14         46.5250    50.8610    48.1590 h1         1 R8T       0.062700
     37 H15         46.8830    48.2620    49.1210 ho         1 R8T       0.435000
     38 H16         48.5360    50.3010    49.3310 h1         1 R8T       0.020200
     39 H17         47.5410    51.2060    50.4770 h1         1 R8T       0.020200
     40 H18         48.4070    49.3220    51.4680 ho         1 R8T       0.487000
@<TRIPOS>BOND
     1     1     2 1   
     2     1    21 1   
     3     1    22 1   
     4     1    23 1   
     5     2     3 2   
     6     2     4 1   
     7     4     5 1   
     8     4    24 1   
     9     5     6 1   
    10     5    14 1   
    11     5    25 1   
    12     6     7 1   
    13     6     8 1   
    14     6    26 1   
    15     7    27 1   
    16     8     9 1   
    17     8    28 1   
    18     8    29 1   
    19     9    10 1   
    20     9    13 1   
    21     9    30 1   
    22    10    11 1   
    23    10    12 1   
    24    13    14 1   
    25    13    31 1   
    26    13    32 1   
    27    14    15 1   
    28    14    33 1   
    29    15    16 1   
    30    15    17 1   
    31    15    34 1   
    32    16    35 1   
    33    17    18 1   
    34    17    19 1   
    35    17    36 1   
    36    18    37 1   
    37    19    20 1   
    38    19    38 1   
    39    19    39 1   
    40    20    40 1   
@<TRIPOS>SUBSTRUCTURE
     1 R8T         1 TEMP              0 ****  ****    0 ROOT
