@<TRIPOS>MOLECULE
R8U
   57    62     1     0     0
SMALL
No Charge or Current Charge


@<TRIPOS>ATOM
      1 C1          12.7640    47.4520    46.6520 c6         1 R8U       0.232500
      2 C2          11.7190    46.3150    46.3090 c6         1 R8U       0.151300
      3 C3          11.4840    45.2720    47.4320 c3         1 R8U      -0.093100
      4 O1          12.1730    45.5410    45.1650 os         1 R8U      -0.462000
      5 C4          12.3390    46.3160    43.9490 c6         1 R8U       0.145300
      6 C5          12.7180    45.3230    42.8250 c3         1 R8U      -0.086100
      7 C6          13.4090    47.4330    44.1450 c6         1 R8U       0.197800
      8 N1          13.0270    48.2680    45.3760 nh         1 R8U      -0.835400
      9 C7          13.0290    49.7090    45.3670 ca         1 R8U       0.392000
     10 C8          13.2500    50.4080    46.5930 ca         1 R8U      -0.178300
     11 C9          13.3420    49.6460    47.9110 c6         1 R8U      -0.003100
     12 C10         12.4590    48.3690    47.8780 c6         1 R8U      -0.219000
     13 C11         10.9660    48.7840    47.8820 c          1 R8U       0.585000
     14 O2          10.4300    49.3350    46.9360 o          1 R8U      -0.490500
     15 N2          10.2170    48.5070    48.9810 ns         1 R8U      -0.477000
     16 C12         10.5720    47.8720    50.1110 c          1 R8U       0.632000
     17 O3           9.8070    47.6880    51.0360 o          1 R8U      -0.524000
     18 N3          11.8480    47.4440    50.1200 ns         1 R8U      -0.477000
     19 C13         12.8030    47.5860    49.1670 c          1 R8U       0.585000
     20 O4          13.9040    47.0950    49.3550 o          1 R8U      -0.490500
     21 C14         13.3130    51.8190    46.6320 ca         1 R8U       0.032000
     22 C15         13.1560    52.5230    45.4320 ca         1 R8U      -0.272900
     23 C16         12.8320    51.8810    44.2810 ca         1 R8U       0.107100
     24 O5          12.5170    52.7690    43.2860 os         1 R8U      -0.108100
     25 N4          12.6290    54.1090    43.8690 nc         1 R8U      -0.347700
     26 C17         13.0620    53.9290    45.1200 cd         1 R8U       0.499500
     27 N5          13.2920    54.9590    46.0160 n          1 R8U      -0.363300
     28 C18         12.5230    56.2090    45.9780 c5         1 R8U       0.091700
     29 C19         11.0920    56.0200    46.5290 c3         1 R8U      -0.108100
     30 C20         13.4330    57.0920    46.8830 c5         1 R8U       0.142600
     31 O6          14.3130    56.1760    47.5790 os         1 R8U      -0.409100
     32 C21         14.3390    54.9850    46.9210 c          1 R8U       0.710100
     33 O7          15.1750    54.1150    47.1040 o          1 R8U      -0.514000
     34 C22         12.7530    50.4860    44.1980 ca         1 R8U       0.063000
     35 F1          12.3400    49.9360    43.0290 f          1 R8U      -0.168000
     36 H1          13.7090    46.9320    46.8750 h1         1 R8U       0.091700
     37 H2          10.7500    46.7670    46.0500 h1         1 R8U       0.063700
     38 H5          10.8890    45.6870    48.2500 hc         1 R8U       0.050033
     39 H3          10.9290    44.4070    47.0500 hc         1 R8U       0.050033
     40 H4          12.4310    44.9040    47.8440 hc         1 R8U       0.050033
     41 H6          11.3750    46.7820    43.6990 h1         1 R8U       0.054700
     42 H9          11.9480    44.5520    42.7060 hc         1 R8U       0.049367
     43 H7          12.8210    45.8400    41.8640 hc         1 R8U       0.049367
     44 H8          13.6690    44.8210    43.0410 hc         1 R8U       0.049367
     45 H10         14.3860    46.9580    44.3160 h1         1 R8U       0.069200
     46 H11         13.5170    48.0160    43.2240 h1         1 R8U       0.069200
     47 H12         14.3960    49.3800    48.0770 hc         1 R8U       0.074200
     48 H13         13.0510    50.2870    48.7560 hc         1 R8U       0.074200
     49 H14          9.2580    48.8160    48.9430 hn         1 R8U       0.353500
     50 H15         12.1300    46.9460    50.9510 hn         1 R8U       0.353500
     51 H16         13.4450    52.3390    47.5790 ha         1 R8U       0.144000
     52 H17         12.4660    56.6240    44.9620 h1         1 R8U       0.092700
     53 H18         10.5570    56.9770    46.5650 hc         1 R8U       0.055700
     54 H19         10.5120    55.3400    45.8940 hc         1 R8U       0.055700
     55 H20         11.1060    55.6030    47.5430 hc         1 R8U       0.055700
     56 H21         14.0490    57.7650    46.2700 h1         1 R8U       0.076200
     57 H22         12.8710    57.7000    47.6050 h1         1 R8U       0.076200
@<TRIPOS>BOND
     1     1     2 1   
     2     1     8 1   
     3     1    12 1   
     4     1    36 1   
     5     2     3 1   
     6     2     4 1   
     7     2    37 1   
     8     3    38 1   
     9     3    39 1   
    10     3    40 1   
    11     4     5 1   
    12     5     6 1   
    13     5     7 1   
    14     5    41 1   
    15     6    42 1   
    16     6    43 1   
    17     6    44 1   
    18     7     8 1   
    19     7    45 1   
    20     7    46 1   
    21     8     9 1   
    22     9    10 ar  
    23     9    34 ar  
    24    10    11 1   
    25    10    21 ar  
    26    11    12 1   
    27    11    47 1   
    28    11    48 1   
    29    12    13 1   
    30    12    19 1   
    31    13    14 2   
    32    13    15 1   
    33    15    16 1   
    34    15    49 1   
    35    16    17 2   
    36    16    18 1   
    37    18    19 1   
    38    18    50 1   
    39    19    20 2   
    40    21    22 ar  
    41    21    51 1   
    42    22    23 ar  
    43    22    26 1   
    44    23    24 1   
    45    23    34 ar  
    46    24    25 1   
    47    25    26 2   
    48    26    27 1   
    49    27    28 1   
    50    27    32 1   
    51    28    29 1   
    52    28    30 1   
    53    28    52 1   
    54    29    53 1   
    55    29    54 1   
    56    29    55 1   
    57    30    31 1   
    58    30    56 1   
    59    30    57 1   
    60    31    32 1   
    61    32    33 2   
    62    34    35 1   
@<TRIPOS>SUBSTRUCTURE
     1 R8U         1 TEMP              0 ****  ****    0 ROOT
