@<TRIPOS>MOLECULE
R8U
   57    62     1     0     0
SMALL
abcg2


@<TRIPOS>ATOM
      1 C1          12.7390    47.3670    46.5640 c6         1 R8U       0.232500
      2 C2          11.5240    46.5220    46.1180 c6         1 R8U       0.151300
      3 C3          11.0260    45.5590    47.1780 c3         1 R8U      -0.093100
      4 O1          11.9070    45.7300    44.9900 os         1 R8U      -0.462000
      5 C4          12.3220    46.5090    43.8610 c6         1 R8U       0.145300
      6 C5          12.6550    45.5530    42.7370 c3         1 R8U      -0.086100
      7 C6          13.5090    47.3700    44.2680 c6         1 R8U       0.197800
      8 N1          13.1810    48.1870    45.4290 nh         1 R8U      -0.835400
      9 C7          13.1860    49.5550    45.4380 ca         1 R8U       0.392000
     10 C8          13.4020    50.2200    46.6850 ca         1 R8U      -0.178300
     11 C9          13.6090    49.3280    47.8650 c6         1 R8U      -0.003100
     12 C10         12.5450    48.1730    47.8630 c6         1 R8U      -0.219000
     13 C11         11.1800    48.8360    47.9740 c          1 R8U       0.585000
     14 O2          10.5910    49.2970    47.0190 o          1 R8U      -0.490500
     15 N2          10.6660    48.9770    49.2440 ns         1 R8U      -0.477000
     16 C12         11.1240    48.3780    50.3970 c          1 R8U       0.632000
     17 O3          10.5830    48.5340    51.4710 o          1 R8U      -0.524000
     18 N3          12.2280    47.5660    50.2360 ns         1 R8U      -0.477000
     19 C13         12.9080    47.3080    49.0710 c          1 R8U       0.585000
     20 O4          13.8060    46.4940    49.0480 o          1 R8U      -0.490500
     21 C14         13.4060    51.5890    46.8060 ca         1 R8U       0.032000
     22 C15         13.2330    52.3660    45.6530 ca         1 R8U      -0.272900
     23 C16         13.0100    51.7260    44.4350 ca         1 R8U       0.107100
     24 O5          12.7630    52.6280    43.4590 os         1 R8U      -0.108100
     25 N4          12.8310    53.9200    44.0350 nc         1 R8U      -0.347700
     26 C17         13.1050    53.7520    45.3060 cd         1 R8U       0.499500
     27 N5          13.1640    54.8710    46.1200 n          1 R8U      -0.363300
     28 C18         12.3500    56.0760    45.8720 c5         1 R8U       0.091700
     29 C19         10.8720    55.8150    46.1190 c3         1 R8U      -0.108100
     30 C20         12.9890    57.0490    46.8750 c5         1 R8U       0.142600
     31 O6          13.7900    56.2240    47.7580 os         1 R8U      -0.409100
     32 C21         13.9590    54.9960    47.2320 c          1 R8U       0.710100
     33 O7          14.7120    54.1780    47.7080 o          1 R8U      -0.514000
     34 C22         12.9720    50.3500    44.3080 ca         1 R8U       0.063000
     35 F1          12.6480    49.8210    43.1020 f          1 R8U      -0.168000
     36 H1          13.5450    46.6600    46.7770 h1         1 R8U       0.091700
     37 H2          10.7230    47.1990    45.8100 h1         1 R8U       0.063700
     38 H5          10.5840    46.0840    48.0250 hc         1 R8U       0.050033
     39 H3          10.2520    44.9230    46.7480 hc         1 R8U       0.050033
     40 H4          11.8360    44.9250    47.5410 hc         1 R8U       0.050033
     41 H6          11.4930    47.1670    43.5690 h1         1 R8U       0.054700
     42 H9          11.7910    44.9310    42.4990 hc         1 R8U       0.049367
     43 H7          12.9380    46.1100    41.8420 hc         1 R8U       0.049367
     44 H8          13.4860    44.9030    43.0200 hc         1 R8U       0.049367
     45 H10         14.3370    46.7060    44.5450 h1         1 R8U       0.069200
     46 H11         13.8400    47.9950    43.4470 h1         1 R8U       0.069200
     47 H12         14.5850    48.8370    47.8170 hc         1 R8U       0.074200
     48 H13         13.5560    49.8910    48.7950 hc         1 R8U       0.074200
     49 H14          9.8100    49.5110    49.3350 hn         1 R8U       0.353500
     50 H15         12.5340    47.0700    51.0650 hn         1 R8U       0.353500
     51 H16         13.5620    52.0500    47.7690 ha         1 R8U       0.144000
     52 H17         12.5130    56.4200    44.8530 h1         1 R8U       0.092700
     53 H18         10.3070    56.7320    45.9410 hc         1 R8U       0.055700
     54 H19         10.4960    55.0440    45.4460 hc         1 R8U       0.055700
     55 H20         10.7080    55.4970    47.1500 hc         1 R8U       0.055700
     56 H21         13.6530    57.7650    46.3940 h1         1 R8U       0.076200
     57 H22         12.2520    57.5700    47.4820 h1         1 R8U       0.076200
@<TRIPOS>BOND
     1     1     2 1   
     2     1     8 1   
     3     1    12 1   
     4     1    36 1   
     5     2     3 1   
     6     2     4 1   
     7     2    37 1   
     8     3    38 1   
     9     3    39 1   
    10     3    40 1   
    11     4     5 1   
    12     5     6 1   
    13     5     7 1   
    14     5    41 1   
    15     6    42 1   
    16     6    43 1   
    17     6    44 1   
    18     7     8 1   
    19     7    45 1   
    20     7    46 1   
    21     8     9 1   
    22     9    10 ar  
    23     9    34 ar  
    24    10    11 1   
    25    10    21 ar  
    26    11    12 1   
    27    11    47 1   
    28    11    48 1   
    29    12    13 1   
    30    12    19 1   
    31    13    14 2   
    32    13    15 1   
    33    15    16 1   
    34    15    49 1   
    35    16    17 2   
    36    16    18 1   
    37    18    19 1   
    38    18    50 1   
    39    19    20 2   
    40    21    22 ar  
    41    21    51 1   
    42    22    23 ar  
    43    22    26 1   
    44    23    24 1   
    45    23    34 ar  
    46    24    25 1   
    47    25    26 2   
    48    26    27 1   
    49    27    28 1   
    50    27    32 1   
    51    28    29 1   
    52    28    30 1   
    53    28    52 1   
    54    29    53 1   
    55    29    54 1   
    56    29    55 1   
    57    30    31 1   
    58    30    56 1   
    59    30    57 1   
    60    31    32 1   
    61    32    33 2   
    62    34    35 1   
@<TRIPOS>SUBSTRUCTURE
     1 R8U         1 TEMP              0 ****  ****    0 ROOT
