@<TRIPOS>MOLECULE
R8V
   21    22     1     0     0
SMALL
No Charge or Current Charge


@<TRIPOS>ATOM
      1 C4          31.4430   -10.4290    82.5230 ca         1 R8V      -0.095000
      2 C5          32.7700   -10.5310    82.0450 ca         1 R8V      -0.114000
      3 C6          33.8210    -9.8810    82.7230 ca         1 R8V      -0.043000
      4 C7          33.5040    -9.1390    83.8710 ca         1 R8V      -0.149600
      5 C8          34.3900    -8.3750    84.7670 c          1 R8V       0.589600
      6 O           35.6030    -8.2480    84.6670 o          1 R8V      -0.537000
      7 N           33.5770    -7.8250    85.7670 n          1 R8V      -0.447800
      8 C           34.1510    -7.0320    86.8690 c3         1 R8V       0.093300
      9 C2          32.2100    -9.0320    84.3480 ca         1 R8V      -0.085300
     10 C1          32.1440    -8.1720    85.6060 c5         1 R8V       0.382000
     11 O1          31.3470    -7.0160    85.4230 oh         1 R8V      -0.640000
     12 C3          31.1550    -9.6760    83.6810 ca         1 R8V      -0.079000
     13 H1          30.6380   -10.9340    81.9930 ha         1 R8V       0.116000
     14 H2          32.9820   -11.1140    81.1520 ha         1 R8V       0.119000
     15 H3          34.8480    -9.9520    82.3670 ha         1 R8V       0.136000
     16 H4          33.3980    -6.8740    87.6520 h1         1 R8V       0.042700
     17 H5          35.0070    -7.5620    87.3030 h1         1 R8V       0.042700
     18 H6          34.4850    -6.0580    86.4880 h1         1 R8V       0.042700
     19 H7          31.8340    -8.7550    86.4830 h2         1 R8V       0.050700
     20 H8          31.4930    -6.4690    86.2220 ho         1 R8V       0.450000
     21 H9          30.1340    -9.5950    84.0500 ha         1 R8V       0.124000
@<TRIPOS>BOND
     1     1     2 ar  
     2     1    12 ar  
     3     1    13 1   
     4     2     3 ar  
     5     2    14 1   
     6     3     4 ar  
     7     3    15 1   
     8     4     5 1   
     9     4     9 ar  
    10     5     6 2   
    11     5     7 1   
    12     7     8 1   
    13     7    10 1   
    14     8    16 1   
    15     8    17 1   
    16     8    18 1   
    17     9    10 1   
    18     9    12 ar  
    19    10    11 1   
    20    10    19 1   
    21    11    20 1   
    22    12    21 1   
@<TRIPOS>SUBSTRUCTURE
     1 R8V         1 TEMP              0 ****  ****    0 ROOT
