@<TRIPOS>MOLECULE
R8V
   21    22     1     0     0
SMALL
abcg2


@<TRIPOS>ATOM
      1 C4          31.4420   -10.3350    82.5440 ca         1 R8V      -0.095000
      2 C5          32.7530   -10.5480    82.1220 ca         1 R8V      -0.114000
      3 C6          33.8200    -9.9760    82.8050 ca         1 R8V      -0.043000
      4 C7          33.5280    -9.1980    83.9110 ca         1 R8V      -0.149600
      5 C8          34.4420    -8.4590    84.8120 c          1 R8V       0.589600
      6 O           35.6580    -8.4140    84.7530 o          1 R8V      -0.537000
      7 N           33.6510    -7.8480    85.7270 n          1 R8V      -0.447800
      8 C           34.1320    -7.0500    86.8230 c3         1 R8V       0.093300
      9 C2          32.2290    -8.9930    84.3370 ca         1 R8V      -0.085300
     10 C1          32.2330    -8.1090    85.5510 c5         1 R8V       0.382000
     11 O1          31.4840    -6.9590    85.3150 oh         1 R8V      -0.640000
     12 C3          31.1620    -9.5490    83.6590 ca         1 R8V      -0.079000
     13 H1          30.6280   -10.7870    81.9930 ha         1 R8V       0.116000
     14 H2          32.9390   -11.1660    81.2540 ha         1 R8V       0.119000
     15 H3          34.8400   -10.1290    82.4780 ha         1 R8V       0.136000
     16 H4          33.7270    -7.4150    87.7680 h1         1 R8V       0.042700
     17 H5          35.2160    -7.1120    86.8680 h1         1 R8V       0.042700
     18 H6          33.8530    -6.0010    86.7080 h1         1 R8V       0.042700
     19 H7          31.8570    -8.6430    86.4340 h2         1 R8V       0.050700
     20 H8          31.1980    -6.5890    86.1570 ho         1 R8V       0.450000
     21 H9          30.1410    -9.3900    83.9790 ha         1 R8V       0.124000
@<TRIPOS>BOND
     1     1     2 ar  
     2     1    12 ar  
     3     1    13 1   
     4     2     3 ar  
     5     2    14 1   
     6     3     4 ar  
     7     3    15 1   
     8     4     5 1   
     9     4     9 ar  
    10     5     6 2   
    11     5     7 1   
    12     7     8 1   
    13     7    10 1   
    14     8    16 1   
    15     8    17 1   
    16     8    18 1   
    17     9    10 1   
    18     9    12 ar  
    19    10    11 1   
    20    10    19 1   
    21    11    20 1   
    22    12    21 1   
@<TRIPOS>SUBSTRUCTURE
     1 R8V         1 TEMP              0 ****  ****    0 ROOT
