@<TRIPOS>MOLECULE
R8W
   46    49     1     0     0
SMALL
No Charge or Current Charge


@<TRIPOS>ATOM
      1 C19         52.3310    47.9000     6.5610 cc         1 R8W       0.400400
      2 C21         52.1380    45.9130     5.7950 cd         1 R8W       0.505900
      3 C23         50.7330    47.2290     9.8570 ca         1 R8W      -0.091500
      4 C01         46.3490    49.7610    17.5200 c3         1 R8W      -0.083100
      5 C03         44.3460    49.6230    15.9390 c3         1 R8W      -0.083100
      6 C04         46.6600    48.9370    15.1350 ca         1 R8W      -0.089300
      7 C05         46.6030    47.5320    15.3020 ca         1 R8W      -0.118000
      8 C06         47.3520    46.6720    14.4680 ca         1 R8W      -0.160000
      9 C07         48.1640    47.1970    13.4430 ca         1 R8W      -0.075000
     10 C08         48.1900    48.5920    13.2730 ca         1 R8W      -0.082800
     11 C09         47.4810    49.4250    14.0980 ca         1 R8W      -0.063200
     12 C11         48.6520    50.7980    12.6610 cc         1 R8W      -0.059300
     13 C12         48.9200    49.4530    12.3530 cd         1 R8W      -0.149400
     14 C13         49.9760    48.9140    11.4640 ca         1 R8W       0.075200
     15 C14         51.2540    49.5060    11.4040 ca         1 R8W      -0.097000
     16 C15         52.2590    48.9710    10.5800 ca         1 R8W      -0.091500
     17 C16         52.0050    47.8310     9.7960 ca         1 R8W      -0.152300
     18 C17         53.1010    47.2540     8.9010 c3         1 R8W       0.149900
     19 C24         49.7330    47.7650    10.6850 ca         1 R8W      -0.097000
     20 N10         47.7480    50.7350    13.7440 na         1 R8W      -0.196700
     21 N18         52.6570    46.9780     7.5230 na         1 R8W      -0.050700
     22 N20         51.9980    47.2510     5.4590 nd         1 R8W      -0.714000
     23 N22         52.5410    45.7100     7.0430 nc         1 R8W      -0.520800
     24 O26         49.7640    51.9700    10.9240 o          1 R8W      -0.700500
     25 O27         48.7900    53.1130    12.4470 o          1 R8W      -0.700500
     26 H191        52.3560    48.9720     6.7220 h5         1 R8W       0.054100
     27 H211        51.9330    45.1180     5.0860 h5         1 R8W       0.056100
     28 H231        50.5160    46.3440     9.2620 ha         1 R8W       0.096000
     29 H013        45.8260    50.4870    18.1550 hc         1 R8W       0.029700
     30 H011        46.1650    48.7590    17.9240 hc         1 R8W       0.029700
     31 H012        47.4240    49.9660    17.5850 hc         1 R8W       0.029700
     32 H021        46.0310    50.9120    15.7540 hc         1 R8W       0.048700
     33 H032        43.7880    50.3510    16.5410 hc         1 R8W       0.029700
     34 H031        44.0200    49.7250    14.8970 hc         1 R8W       0.029700
     35 H033        44.0790    48.6180    16.2850 hc         1 R8W       0.029700
     36 H051        45.9870    47.1010    16.0880 ha         1 R8W       0.090000
     37 H061        47.3070    45.5970    14.6220 ha         1 R8W       0.090000
     38 H071        48.7570    46.5310    12.8250 ha         1 R8W       0.105000
     39 H141        51.4830    50.3690    12.0230 ha         1 R8W       0.121500
     40 H151        53.2380    49.4440    10.5570 ha         1 R8W       0.096000
     41 H171        53.4710    46.3230     9.3490 h1         1 R8W       0.053200
     42 H172        53.9460    47.9520     8.8530 h1         1 R8W       0.053200
     43 H241        48.7500    47.3010    10.6950 ha         1 R8W       0.121500
     44 H101        47.3460    51.5510    14.1910 hn         1 R8W       0.368000
     45 C02         45.8660    49.8710    16.0570 c3         1 R8W      -0.008400
     46 C25         49.1290    52.0390    11.9660 c          1 R8W       0.722200
@<TRIPOS>BOND
     1     1    21 1   
     2     1    22 2   
     3     1    26 1   
     4     2    22 1   
     5     2    23 2   
     6     2    27 1   
     7     3    17 ar  
     8     3    19 ar  
     9     3    28 1   
    10     4    29 1   
    11     4    30 1   
    12     4    31 1   
    13     4    45 1   
    14     5    33 1   
    15     5    34 1   
    16     5    35 1   
    17     5    45 1   
    18     6     7 ar  
    19     6    11 ar  
    20     6    45 1   
    21     7     8 ar  
    22     7    36 1   
    23     8     9 ar  
    24     8    37 1   
    25     9    10 ar  
    26     9    38 1   
    27    10    11 ar  
    28    10    13 1   
    29    11    20 1   
    30    12    13 2   
    31    12    20 1   
    32    12    46 1   
    33    13    14 1   
    34    14    15 ar  
    35    14    19 ar  
    36    15    16 ar  
    37    15    39 1   
    38    16    17 ar  
    39    16    40 1   
    40    17    18 1   
    41    18    21 1   
    42    18    41 1   
    43    18    42 1   
    44    19    43 1   
    45    20    44 1   
    46    21    23 1   
    47    24    46 1   
    48    25    46 1   
    49    32    45 1   
@<TRIPOS>SUBSTRUCTURE
     1 R8W         1 TEMP              0 ****  ****    0 ROOT
