@<TRIPOS>MOLECULE
R8W
   46    49     1     0     0
SMALL
abcg2


@<TRIPOS>ATOM
      1 C19         53.5440    48.0290     6.8080 cc         1 R8W       0.400400
      2 C21         51.8490    47.8260     5.6190 cd         1 R8W       0.505900
      3 C23         50.5840    46.6400    10.0700 ca         1 R8W      -0.091500
      4 C01         45.8300    49.8510    17.5860 c3         1 R8W      -0.083100
      5 C03         44.6530    50.0330    15.3760 c3         1 R8W      -0.083100
      6 C04         46.9450    49.0420    15.4520 ca         1 R8W      -0.089300
      7 C05         47.1880    47.7830    15.9710 ca         1 R8W      -0.118000
      8 C06         48.0430    46.8620    15.3390 ca         1 R8W      -0.160000
      9 C07         48.6810    47.1710    14.1560 ca         1 R8W      -0.075000
     10 C08         48.4550    48.4310    13.5860 ca         1 R8W      -0.082800
     11 C09         47.5990    49.3380    14.2470 ca         1 R8W      -0.063200
     12 C11         48.3650    50.3430    12.3930 cc         1 R8W      -0.059300
     13 C12         48.9390    49.0900    12.4060 cd         1 R8W      -0.149400
     14 C13         49.8960    48.4990    11.4640 ca         1 R8W       0.075200
     15 C14         51.0800    49.1530    11.1140 ca         1 R8W      -0.097000
     16 C15         51.9920    48.5650    10.2570 ca         1 R8W      -0.091500
     17 C16         51.7530    47.3010     9.7210 ca         1 R8W      -0.152300
     18 C17         52.7350    46.6790     8.7680 c3         1 R8W       0.149900
     19 C24         49.6700    47.2290    10.9330 ca         1 R8W      -0.097000
     20 N10         47.5730    50.4740    13.4990 na         1 R8W      -0.196700
     21 N18         52.6500    47.2700     7.4460 na         1 R8W      -0.050700
     22 N20         53.0700    48.4000     5.6390 nd         1 R8W      -0.714000
     23 N22         51.5550    47.1340     6.6940 nc         1 R8W      -0.520800
     24 O26         49.0140    51.2840    10.3370 o          1 R8W      -0.700500
     25 O27         47.7750    52.5020    11.7470 o          1 R8W      -0.700500
     26 H191        54.5090    48.2770     7.2240 h5         1 R8W       0.054100
     27 H211        51.1620    47.9170     4.7910 h5         1 R8W       0.056100
     28 H231        50.3790    45.6560     9.6640 ha         1 R8W       0.096000
     29 H013        45.2240    50.6600    17.9950 hc         1 R8W       0.029700
     30 H011        45.3170    48.9160    17.8150 hc         1 R8W       0.029700
     31 H012        46.7840    49.8500    18.1130 hc         1 R8W       0.029700
     32 H021        46.4480    51.0420    15.9430 hc         1 R8W       0.048700
     33 H032        43.9950    50.8010    15.7860 hc         1 R8W       0.029700
     34 H031        44.7520    50.2170    14.3060 hc         1 R8W       0.029700
     35 H033        44.1630    49.0660    15.5060 hc         1 R8W       0.029700
     36 H051        46.7150    47.4880    16.8990 ha         1 R8W       0.090000
     37 H061        48.2020    45.8950    15.7980 ha         1 R8W       0.090000
     38 H071        49.3440    46.4570    13.6840 ha         1 R8W       0.105000
     39 H141        51.2900    50.1290    11.5300 ha         1 R8W       0.121500
     40 H151        52.9060    49.0920    10.0050 ha         1 R8W       0.096000
     41 H171        52.5640    45.6070     8.6750 h1         1 R8W       0.053200
     42 H172        53.7600    46.8230     9.1100 h1         1 R8W       0.053200
     43 H241        48.7590    46.7000    11.1850 ha         1 R8W       0.121500
     44 H101        47.0420    51.3120    13.6760 hn         1 R8W       0.368000
     45 C02         46.0110    50.0470    16.0850 c3         1 R8W      -0.008400
     46 C25         48.3980    51.4790    11.3970 c          1 R8W       0.722200
@<TRIPOS>BOND
     1     1    21 1   
     2     1    22 2   
     3     1    26 1   
     4     2    22 1   
     5     2    23 2   
     6     2    27 1   
     7     3    17 ar  
     8     3    19 ar  
     9     3    28 1   
    10     4    29 1   
    11     4    30 1   
    12     4    31 1   
    13     4    45 1   
    14     5    33 1   
    15     5    34 1   
    16     5    35 1   
    17     5    45 1   
    18     6     7 ar  
    19     6    11 ar  
    20     6    45 1   
    21     7     8 ar  
    22     7    36 1   
    23     8     9 ar  
    24     8    37 1   
    25     9    10 ar  
    26     9    38 1   
    27    10    11 ar  
    28    10    13 1   
    29    11    20 1   
    30    12    13 2   
    31    12    20 1   
    32    12    46 1   
    33    13    14 1   
    34    14    15 ar  
    35    14    19 ar  
    36    15    16 ar  
    37    15    39 1   
    38    16    17 ar  
    39    16    40 1   
    40    17    18 1   
    41    18    21 1   
    42    18    41 1   
    43    18    42 1   
    44    19    43 1   
    45    20    44 1   
    46    21    23 1   
    47    24    46 1   
    48    25    46 1   
    49    32    45 1   
@<TRIPOS>SUBSTRUCTURE
     1 R8W         1 TEMP              0 ****  ****    0 ROOT
