@<TRIPOS>MOLECULE
R8X
   58    61     1     0     0
SMALL
abcg2


@<TRIPOS>ATOM
      1 N1         -21.9440     7.0390    30.0540 n3         1 R8X      -0.776500
      2 N3         -17.5460     4.0750    24.8380 nb         1 R8X      -0.656000
      3 C4         -22.5510     6.4460    28.8630 c6         1 R8X       0.223800
      4 C5         -22.0280     5.0120    28.7090 c6         1 R8X      -0.095400
      5 C6         -20.5730     5.0400    28.2310 c          1 R8X       0.607100
      6 C7         -19.1670     5.1750    26.2360 ca         1 R8X      -0.078000
      7 C8         -18.7300     4.1030    25.5000 ca         1 R8X       0.309900
      8 C10        -17.1100     6.3030    25.6440 ca         1 R8X      -0.093000
      9 C13        -17.8840     8.5940    27.0360 ca         1 R8X      -0.091000
     10 C15        -18.3620     6.3410    26.3200 ca         1 R8X      -0.004000
     11 C17        -22.1220     2.8520    29.9750 ca         1 R8X      -0.090000
     12 C20        -22.3800     4.1680    32.3980 ca         1 R8X      -0.101000
     13 C21        -22.2850     4.9120    31.2210 ca         1 R8X      -0.061300
     14 C22        -22.3640     6.4150    31.3070 c6         1 R8X       0.256100
     15 C18        -22.2170     2.1380    31.1560 ca         1 R8X       0.127000
     16 C19        -22.3460     2.7830    32.3800 ca         1 R8X      -0.092000
     17 S          -21.6650     8.6560    30.0920 s6         1 R8X       1.355200
     18 O1         -22.7520     9.3770    30.7180 o          1 R8X      -0.575000
     19 O2         -21.3240     9.0230    28.7360 o          1 R8X      -0.575000
     20 N          -20.4000     8.7240    31.1080 n3         1 R8X      -0.796500
     21 C3         -19.1560     8.0760    30.6880 c3         1 R8X       0.193100
     22 C2         -20.2930     9.7980    32.1000 c3         1 R8X       0.189800
     23 C1         -19.4240    10.9720    31.6560 c3         1 R8X       0.127600
     24 O          -19.8640    11.5980    30.4620 os         1 R8X      -0.460000
     25 C          -21.0040    12.4320    30.6280 c3         1 R8X       0.129900
     26 C16        -22.1550     4.2460    30.0030 ca         1 R8X      -0.046300
     27 O3         -19.6220     5.0390    29.0000 o          1 R8X      -0.565100
     28 N2         -20.4300     5.1120    26.8830 ns         1 R8X      -0.170000
     29 C14        -18.7340     7.5170    27.0090 ca         1 R8X      -0.088000
     30 C12        -16.6310     8.5510    26.3840 ca         1 R8X      -0.107000
     31 C11        -16.2520     7.4270    25.6960 ca         1 R8X      -0.090000
     32 C9         -16.7720     5.1330    24.9220 ca         1 R8X       0.360900
     33 H1         -22.2960     7.0430    27.9950 h1         1 R8X       0.068200
     34 H2         -23.6420     6.4200    28.9610 h1         1 R8X       0.068200
     35 H3         -22.6330     4.5250    27.9420 hc         1 R8X       0.065700
     36 H4         -19.3460     3.2140    25.4300 h4         1 R8X       0.019100
     37 H5         -18.1770     9.4910    27.5670 ha         1 R8X       0.127000
     38 H6         -22.0210     2.3320    29.0310 ha         1 R8X       0.128000
     39 H7         -22.4800     4.6830    33.3460 ha         1 R8X       0.119000
     40 H8         -21.7160     6.7730    32.1060 h1         1 R8X       0.064200
     41 H9         -23.3920     6.7100    31.5560 h1         1 R8X       0.064200
     42 H10        -22.4180     2.2140    33.2960 ha         1 R8X       0.133000
     43 H11        -18.5860     7.8370    31.5850 h1         1 R8X       0.057367
     44 H12        -19.3830     7.1540    30.1610 h1         1 R8X       0.057367
     45 H13        -18.5550     8.7200    30.0430 h1         1 R8X       0.057367
     46 H14        -21.2950    10.1280    32.3550 h1         1 R8X       0.068700
     47 H15        -19.8460     9.3660    32.9990 h1         1 R8X       0.068700
     48 H16        -18.4060    10.6350    31.4580 h1         1 R8X       0.053200
     49 H17        -19.3850    11.6970    32.4800 h1         1 R8X       0.053200
     50 H18        -21.1920    12.9070    29.6660 h1         1 R8X       0.039367
     51 H19        -21.8880    11.8590    30.9180 h1         1 R8X       0.039367
     52 H20        -20.8120    13.2040    31.3820 h1         1 R8X       0.039367
     53 H21        -21.2470     4.9740    26.3060 hn         1 R8X       0.155000
     54 H22        -19.6880     7.5710    27.5120 ha         1 R8X       0.138000
     55 H23        -15.9770     9.4120    26.4260 ha         1 R8X       0.116000
     56 H24        -15.2990     7.3830    25.1830 ha         1 R8X       0.116000
     57 H25        -15.8200     5.0980    24.4000 h4         1 R8X       0.021100
     58 CL         -22.1740     0.3860    31.1080 cl         1 R8X      -0.207000
@<TRIPOS>BOND
     1     1     3 1   
     2     1    14 1   
     3     1    17 1   
     4     2     7 ar  
     5     2    32 ar  
     6     3     4 1   
     7     3    33 1   
     8     3    34 1   
     9     4     5 1   
    10     4    26 1   
    11     4    35 1   
    12     5    27 2   
    13     5    28 1   
    14     6     7 ar  
    15     6    10 ar  
    16     6    28 1   
    17     7    36 1   
    18     8    10 ar  
    19     8    31 ar  
    20     8    32 ar  
    21     9    29 ar  
    22     9    30 ar  
    23     9    37 1   
    24    10    29 ar  
    25    11    15 ar  
    26    11    26 ar  
    27    11    38 1   
    28    12    13 ar  
    29    12    16 ar  
    30    12    39 1   
    31    13    14 1   
    32    13    26 ar  
    33    14    40 1   
    34    14    41 1   
    35    15    16 ar  
    36    15    58 1   
    37    16    42 1   
    38    17    18 2   
    39    17    19 2   
    40    17    20 1   
    41    20    21 1   
    42    20    22 1   
    43    21    43 1   
    44    21    44 1   
    45    21    45 1   
    46    22    23 1   
    47    22    46 1   
    48    22    47 1   
    49    23    24 1   
    50    23    48 1   
    51    23    49 1   
    52    24    25 1   
    53    25    50 1   
    54    25    51 1   
    55    25    52 1   
    56    28    53 1   
    57    29    54 1   
    58    30    31 ar  
    59    30    55 1   
    60    31    56 1   
    61    32    57 1   
@<TRIPOS>SUBSTRUCTURE
     1 R8X         1 TEMP              0 ****  ****    0 ROOT
