@<TRIPOS>MOLECULE
R8X
   58    61     1     0     0
SMALL
No Charge or Current Charge


@<TRIPOS>ATOM
      1 N1         -21.5390     7.0240    30.0390 n3         1 R8X      -0.776500
      2 N3         -18.1680     4.4570    23.9190 nb         1 R8X      -0.656000
      3 C4         -22.2900     6.4810    28.8940 c6         1 R8X       0.223800
      4 C5         -21.9420     4.9880    28.7040 c6         1 R8X      -0.095400
      5 C6         -20.5260     4.8580    28.1070 c          1 R8X       0.607100
      6 C7         -19.2700     5.2560    25.9400 ca         1 R8X      -0.078000
      7 C8         -19.2240     4.4790    24.7630 ca         1 R8X       0.309900
      8 C10        -17.0600     6.0650    25.3630 ca         1 R8X      -0.093000
      9 C13        -17.0090     7.7640    27.6010 ca         1 R8X      -0.091000
     10 C15        -18.1650     6.0910    26.2430 ca         1 R8X      -0.004000
     11 C17        -22.2420     2.7810    29.9500 ca         1 R8X      -0.090000
     12 C20        -22.2090     4.1020    32.4310 ca         1 R8X      -0.101000
     13 C21        -22.0810     4.8470    31.2420 ca         1 R8X      -0.061300
     14 C22        -21.9500     6.3770    31.3130 c6         1 R8X       0.256100
     15 C18        -22.3670     2.0460    31.1390 ca         1 R8X       0.127000
     16 C19        -22.3500     2.7040    32.3790 ca         1 R8X      -0.092000
     17 S          -21.4910     8.7300    30.0920 s6         1 R8X       1.355200
     18 O1         -22.8290     9.1810    30.4780 o          1 R8X      -0.575000
     19 O2         -20.8050     9.2160    28.8930 o          1 R8X      -0.575000
     20 N          -20.4250     8.9160    31.4210 n3         1 R8X      -0.796500
     21 C3         -19.0580     8.4000    31.1930 c3         1 R8X       0.193100
     22 C2         -20.4770    10.2240    32.1290 c3         1 R8X       0.189800
     23 C1         -19.8910    11.4690    31.3870 c3         1 R8X       0.127600
     24 O          -20.7840    11.9570    30.3560 os         1 R8X      -0.460000
     25 C          -21.9890    12.6050    30.8110 c3         1 R8X       0.129900
     26 C16        -22.0990     4.1810    29.9970 ca         1 R8X      -0.046300
     27 O3         -19.5640     4.4610    28.7580 o          1 R8X      -0.565100
     28 N2         -20.4260     5.1750    26.7600 ns         1 R8X      -0.170000
     29 C14        -18.1360     6.9600    27.3580 ca         1 R8X      -0.088000
     30 C12        -15.9060     7.7150    26.7340 ca         1 R8X      -0.107000
     31 C11        -15.9310     6.8700    25.6130 ca         1 R8X      -0.090000
     32 C9         -17.1050     5.2340    24.2260 ca         1 R8X       0.360900
     33 H1         -22.0560     7.0270    27.9670 h1         1 R8X       0.068200
     34 H2         -23.3740     6.5880    29.0600 h1         1 R8X       0.068200
     35 H3         -22.6440     4.6500    27.9300 hc         1 R8X       0.065700
     36 H4         -20.0620     3.8370    24.4940 h4         1 R8X       0.019100
     37 H5         -16.9930     8.4290    28.4620 ha         1 R8X       0.127000
     38 H6         -22.2530     2.2620    28.9950 ha         1 R8X       0.128000
     39 H7         -22.2010     4.6060    33.3950 ha         1 R8X       0.119000
     40 H8         -21.2330     6.6120    32.1130 h1         1 R8X       0.064200
     41 H9         -22.9220     6.7740    31.6410 h1         1 R8X       0.064200
     42 H10        -22.4480     2.1310    33.2980 ha         1 R8X       0.133000
     43 H11        -18.4630     8.4510    32.1140 h1         1 R8X       0.057367
     44 H12        -19.0740     7.3510    30.8700 h1         1 R8X       0.057367
     45 H13        -18.5370     8.9820    30.4200 h1         1 R8X       0.057367
     46 H14        -21.5050    10.4410    32.4450 h1         1 R8X       0.068700
     47 H15        -19.9080    10.1270    33.0630 h1         1 R8X       0.068700
     48 H16        -18.9190    11.2040    30.9530 h1         1 R8X       0.053200
     49 H17        -19.7050    12.2600    32.1260 h1         1 R8X       0.053200
     50 H18        -22.5470    13.0080    29.9560 h1         1 R8X       0.039367
     51 H19        -22.6490    11.9050    31.3380 h1         1 R8X       0.039367
     52 H20        -21.7550    13.4400    31.4850 h1         1 R8X       0.039367
     53 H21        -21.2980     5.4010    26.2980 hn         1 R8X       0.155000
     54 H22        -18.9800     7.0340    28.0380 ha         1 R8X       0.138000
     55 H23        -15.0350     8.3390    26.9260 ha         1 R8X       0.116000
     56 H24        -15.0780     6.8460    24.9380 ha         1 R8X       0.116000
     57 H25        -16.2670     5.1970    23.5300 h4         1 R8X       0.021100
     58 Cl         -22.5440     0.2970    31.0760 cl         1 R8X      -0.207000
@<TRIPOS>BOND
     1     1     3 1   
     2     1    14 1   
     3     1    17 1   
     4     2     7 ar  
     5     2    32 ar  
     6     3     4 1   
     7     3    33 1   
     8     3    34 1   
     9     4     5 1   
    10     4    26 1   
    11     4    35 1   
    12     5    27 2   
    13     5    28 1   
    14     6     7 ar  
    15     6    10 ar  
    16     6    28 1   
    17     7    36 1   
    18     8    10 ar  
    19     8    31 ar  
    20     8    32 ar  
    21     9    29 ar  
    22     9    30 ar  
    23     9    37 1   
    24    10    29 ar  
    25    11    15 ar  
    26    11    26 ar  
    27    11    38 1   
    28    12    13 ar  
    29    12    16 ar  
    30    12    39 1   
    31    13    14 1   
    32    13    26 ar  
    33    14    40 1   
    34    14    41 1   
    35    15    16 ar  
    36    15    58 1   
    37    16    42 1   
    38    17    18 2   
    39    17    19 2   
    40    17    20 1   
    41    20    21 1   
    42    20    22 1   
    43    21    43 1   
    44    21    44 1   
    45    21    45 1   
    46    22    23 1   
    47    22    46 1   
    48    22    47 1   
    49    23    24 1   
    50    23    48 1   
    51    23    49 1   
    52    24    25 1   
    53    25    50 1   
    54    25    51 1   
    55    25    52 1   
    56    28    53 1   
    57    29    54 1   
    58    30    31 ar  
    59    30    55 1   
    60    31    56 1   
    61    32    57 1   
@<TRIPOS>SUBSTRUCTURE
     1 R8X         1 TEMP              0 ****  ****    0 ROOT
