@<TRIPOS>MOLECULE
R8Y
   27    27     1     0     0
SMALL
No Charge or Current Charge


@<TRIPOS>ATOM
      1 C4          50.9410     5.0310    43.4180 c          1 R8Y       0.721000
      2 C5          51.9660     9.4140    45.2080 c          1 R8Y       0.635700
      3 C6          51.4330     8.8090    46.4700 cc         1 R8Y      -0.272600
      4 C7          51.4360     9.5030    47.6630 cd         1 R8Y      -0.104000
      5 C8          50.8160     8.8140    48.7380 cd         1 R8Y      -0.154000
      6 C9          50.3100     7.5920    48.3820 cc         1 R8Y      -0.266000
      7 O2          52.3020    10.5940    45.2060 o          1 R8Y      -0.639100
      8 N           52.0950     8.6570    44.0020 n          1 R8Y      -0.394800
      9 C2          52.1250     7.1750    43.9240 c3         1 R8Y       0.106000
     10 C3          50.8320     6.5570    43.3460 c3         1 R8Y      -0.228400
     11 O1          50.5500     4.4750    44.4320 o          1 R8Y      -0.733500
     12 O           51.4700     4.4480    42.4850 o          1 R8Y      -0.733500
     13 C1          52.4140     9.3660    42.7350 c3         1 R8Y       0.099000
     14 C           53.9240     9.4420    42.4330 c3         1 R8Y      -0.112100
     15 S           50.5920     7.2690    46.6760 ss         1 R8Y       0.313000
     16 H1          51.8710    10.4920    47.7790 ha         1 R8Y       0.133000
     17 H2          50.7420     9.2200    49.7430 ha         1 R8Y       0.120000
     18 H3          49.7890     6.8600    48.9860 h4         1 R8Y       0.141000
     19 H4          52.3790     6.7430    44.8970 h1         1 R8Y       0.056700
     20 H5          52.9530     6.8830    43.2650 h1         1 R8Y       0.056700
     21 H6          50.7770     6.8870    42.3030 hc         1 R8Y       0.024200
     22 H7          49.9990     6.9180    43.9590 hc         1 R8Y       0.024200
     23 H9          51.9980    10.3820    42.7610 h1         1 R8Y       0.051700
     24 H10         51.9190     8.8490    41.9030 h1         1 R8Y       0.051700
     25 H11         54.0960     9.9920    41.5010 hc         1 R8Y       0.034367
     26 H12         54.4530     9.9630    43.2400 hc         1 R8Y       0.034367
     27 H13         54.3570     8.4420    42.3240 hc         1 R8Y       0.034367
@<TRIPOS>BOND
     1     1    10 1   
     2     1    11 1   
     3     1    12 1   
     4     2     3 1   
     5     2     7 2   
     6     2     8 1   
     7     3     4 2   
     8     3    15 1   
     9     4     5 1   
    10     4    16 1   
    11     5     6 2   
    12     5    17 1   
    13     6    15 1   
    14     6    18 1   
    15     8     9 1   
    16     8    13 1   
    17     9    10 1   
    18     9    19 1   
    19     9    20 1   
    20    10    21 1   
    21    10    22 1   
    22    13    14 1   
    23    13    23 1   
    24    13    24 1   
    25    14    25 1   
    26    14    26 1   
    27    14    27 1   
@<TRIPOS>SUBSTRUCTURE
     1 R8Y         1 TEMP              0 ****  ****    0 ROOT
