@<TRIPOS>MOLECULE
R8Y
   27    27     1     0     0
SMALL
bcc


@<TRIPOS>ATOM
      1 C4          51.0890     4.9530    43.4820 c          1 R8Y       0.931600
      2 C5          51.7520     9.4880    45.0360 c          1 R8Y       0.702700
      3 C6          51.2540     8.8870    46.3060 cc         1 R8Y      -0.127700
      4 C7          51.6950     9.2480    47.5470 cd         1 R8Y      -0.122000
      5 C8          50.9800     8.6170    48.5960 cd         1 R8Y      -0.172000
      6 C9          49.9850     7.8100    48.1330 cc         1 R8Y      -0.139100
      7 O2          51.9130    10.7030    44.9960 o          1 R8Y      -0.639100
      8 N           52.0030     8.6840    43.9860 n          1 R8Y      -0.461800
      9 C2          52.1260     7.2310    44.0560 c3         1 R8Y       0.106000
     10 C3          50.9940     6.4890    43.3630 c3         1 R8Y      -0.228400
     11 O1          51.9030     4.4980    44.3100 o          1 R8Y      -0.838800
     12 O           50.3240     4.2990    42.7470 o          1 R8Y      -0.838800
     13 C1          52.4360     9.2980    42.7380 c3         1 R8Y       0.099000
     14 C           53.9300     9.5850    42.6960 c3         1 R8Y      -0.112100
     15 S           49.9270     7.7950    46.4250 ss         1 R8Y       0.023200
     16 H1          52.5130     9.9370    47.7040 ha         1 R8Y       0.151000
     17 H2          51.1910     8.7620    49.6450 ha         1 R8Y       0.138000
     18 H3          49.2790     7.2270    48.7050 h4         1 R8Y       0.159000
     19 H4          52.2050     6.9220    45.0950 h1         1 R8Y       0.056700
     20 H5          53.0800     6.9630    43.5960 h1         1 R8Y       0.056700
     21 H6          50.9500     6.7620    42.3040 hc         1 R8Y       0.024200
     22 H7          50.0320     6.8060    43.7820 hc         1 R8Y       0.024200
     23 H9          51.8720    10.2150    42.5720 h1         1 R8Y       0.051700
     24 H10         52.1680     8.6170    41.9290 h1         1 R8Y       0.051700
     25 H11         54.2020    10.0060    41.7280 hc         1 R8Y       0.034367
     26 H12         54.2180    10.2980    43.4670 hc         1 R8Y       0.034367
     27 H13         54.5160     8.6750    42.8360 hc         1 R8Y       0.034367
@<TRIPOS>BOND
     1     1    10 1   
     2     1    11 1   
     3     1    12 1   
     4     2     3 1   
     5     2     7 2   
     6     2     8 1   
     7     3     4 2   
     8     3    15 1   
     9     4     5 1   
    10     4    16 1   
    11     5     6 2   
    12     5    17 1   
    13     6    15 1   
    14     6    18 1   
    15     8     9 1   
    16     8    13 1   
    17     9    10 1   
    18     9    19 1   
    19     9    20 1   
    20    10    21 1   
    21    10    22 1   
    22    13    14 1   
    23    13    23 1   
    24    13    24 1   
    25    14    25 1   
    26    14    26 1   
    27    14    27 1   
@<TRIPOS>SUBSTRUCTURE
     1 R8Y         1 TEMP              0 ****  ****    0 ROOT
