@<TRIPOS>MOLECULE
R8Z
   41    44     1     0     0
SMALL
abcg2


@<TRIPOS>ATOM
      1 C18        -43.3670   -30.5380     1.0120 c6         1 R8Z      -0.092400
      2 C17        -43.4310   -30.3310     2.5360 c6         1 R8Z       0.253500
      3 C15        -43.9560   -29.2840     6.4440 ca         1 R8Z       0.172900
      4 C13        -46.1620   -29.0520     6.2930 ca         1 R8Z       0.190500
      5 C10        -48.1840   -29.6270     3.2740 ca         1 R8Z      -0.033000
      6 C20        -45.2450   -32.2780     1.3920 c6         1 R8Z      -0.296400
      7 C19        -44.1370   -31.7660     0.4730 c6         1 R8Z      -0.053400
      8 C03        -44.8740   -29.5020     4.3370 ca         1 R8Z       0.397900
      9 C04        -46.1440   -29.3010     4.9010 cp         1 R8Z      -0.183000
     10 C05        -47.5260   -29.3490     4.4740 cp         1 R8Z      -0.063000
     11 C06        -48.3050   -29.0880     5.6360 ca         1 R8Z       0.014800
     12 C07        -49.6940   -29.0690     5.6160 ca         1 R8Z      -0.174000
     13 C08        -50.2840   -29.3390     4.3970 ca         1 R8Z       0.193000
     14 C09        -49.5720   -29.6220     3.2360 ca         1 R8Z      -0.174000
     15 C23        -43.2020   -31.6830     3.2210 c6         1 R8Z      -0.300400
     16 F11        -51.6410   -29.3350     4.3300 f          1 R8Z      -0.182000
     17 N02        -44.6980   -29.7140     2.9800 nh         1 R8Z      -0.792300
     18 N12        -47.4560   -28.8990     6.7090 na         1 R8Z      -0.330300
     19 N14        -45.0920   -29.0260     7.0890 nb         1 R8Z      -0.213000
     20 N16        -43.7950   -29.5110     5.1400 nb         1 R8Z      -0.275000
     21 S21        -44.5550   -32.8360     2.9470 s6         1 R8Z       1.097000
     22 H182       -42.3110   -30.6610     0.7700 hc         1 R8Z       0.056200
     23 H181       -43.6870   -29.6360     0.4990 hc         1 R8Z       0.056200
     24 H171       -42.5940   -29.6850     2.8220 h1         1 R8Z       0.068700
     25 H151       -43.0530   -29.3020     7.0460 h5         1 R8Z       0.051100
     26 H101       -47.6340   -29.8530     2.3740 ha         1 R8Z       0.119000
     27 H201       -45.9800   -31.5160     1.6350 h1         1 R8Z       0.107700
     28 H202       -45.7490   -33.1510     0.9770 h1         1 R8Z       0.107700
     29 H192       -44.5910   -31.5240    -0.4880 hc         1 R8Z       0.056200
     30 H191       -43.4400   -32.5850     0.2860 hc         1 R8Z       0.056200
     31 H011       -46.0250   -28.1290     2.6420 h1         1 R8Z       0.045367
     32 H013       -44.4880   -27.9720     1.7990 h1         1 R8Z       0.045367
     33 H012       -45.7170   -29.1110     1.2110 h1         1 R8Z       0.045367
     34 H071       -50.2880   -28.8680     6.4970 ha         1 R8Z       0.139000
     35 H091       -50.1080   -29.8350     2.3210 ha         1 R8Z       0.133000
     36 H231       -42.3100   -32.1530     2.8100 h1         1 R8Z       0.118200
     37 H232       -43.1040   -31.5990     4.3000 h1         1 R8Z       0.118200
     38 H121       -47.7390   -28.7570     7.6660 hn         1 R8Z       0.371000
     39 C01        -45.2640   -28.6820     2.1030 c3         1 R8Z       0.195100
     40 O22        -45.5460   -32.6910     4.0020 o          1 R8Z      -0.525000
     41 O24        -43.9820   -34.1630     2.7590 o          1 R8Z      -0.525000
@<TRIPOS>BOND
     1     1     2 1   
     2     1     7 1   
     3     1    22 1   
     4     1    23 1   
     5     2    15 1   
     6     2    17 1   
     7     2    24 1   
     8     3    19 ar  
     9     3    20 ar  
    10     3    25 1   
    11     4     9 ar  
    12     4    18 1   
    13     4    19 ar  
    14     5    10 ar  
    15     5    14 ar  
    16     5    26 1   
    17     6     7 1   
    18     6    21 1   
    19     6    27 1   
    20     6    28 1   
    21     7    29 1   
    22     7    30 1   
    23     8     9 ar  
    24     8    17 1   
    25     8    20 ar  
    26     9    10 1   
    27    10    11 ar  
    28    11    12 ar  
    29    11    18 1   
    30    12    13 ar  
    31    12    34 1   
    32    13    14 ar  
    33    13    16 1   
    34    14    35 1   
    35    15    21 1   
    36    15    36 1   
    37    15    37 1   
    38    17    39 1   
    39    18    38 1   
    40    21    40 2   
    41    21    41 2   
    42    31    39 1   
    43    32    39 1   
    44    33    39 1   
@<TRIPOS>SUBSTRUCTURE
     1 R8Z         1 TEMP              0 ****  ****    0 ROOT
