@<TRIPOS>MOLECULE
R8Z
   41    44     1     0     0
SMALL
No Charge or Current Charge


@<TRIPOS>ATOM
      1 C18        -43.2980   -30.6110     1.0340 c6         1 R8Z      -0.092400
      2 C17        -43.4670   -30.4330     2.5840 c6         1 R8Z       0.253500
      3 C15        -43.8260   -28.8680     6.4600 ca         1 R8Z       0.172900
      4 C13        -46.0940   -28.9470     6.4290 ca         1 R8Z       0.190500
      5 C10        -48.0260   -29.7790     3.3640 ca         1 R8Z      -0.033000
      6 C20        -45.3640   -32.1680     1.2120 c6         1 R8Z      -0.296400
      7 C19        -44.1380   -31.7440     0.3740 c6         1 R8Z      -0.053400
      8 C03        -44.8160   -29.3550     4.4190 ca         1 R8Z       0.397900
      9 C04        -46.0760   -29.2540     5.0620 cp         1 R8Z      -0.183000
     10 C05        -47.4600   -29.4220     4.6050 cp         1 R8Z      -0.063000
     11 C06        -48.2930   -29.1940     5.6950 ca         1 R8Z       0.014800
     12 C07        -49.6860   -29.2800     5.6320 ca         1 R8Z      -0.174000
     13 C08        -50.2520   -29.6210     4.3880 ca         1 R8Z       0.193000
     14 C09        -49.4320   -29.8710     3.2630 ca         1 R8Z      -0.174000
     15 C23        -43.4910   -31.8110     3.2780 c6         1 R8Z      -0.300400
     16 F11        -51.5930   -29.7190     4.2710 f          1 R8Z      -0.182000
     17 N02        -44.6240   -29.5850     3.0320 nh         1 R8Z      -0.792300
     18 N12        -47.4510   -28.9080     6.7730 na         1 R8Z      -0.330300
     19 N14        -44.9810   -28.7510     7.1500 nb         1 R8Z      -0.213000
     20 N16        -43.6890   -29.1500     5.1430 nb         1 R8Z      -0.275000
     21 S21        -44.9040   -32.8520     2.8320 s6         1 R8Z       1.097000
     22 H182       -42.2400   -30.8410     0.8430 hc         1 R8Z       0.056200
     23 H181       -43.4540   -29.6660     0.5010 hc         1 R8Z       0.056200
     24 H171       -42.5480   -29.9230     2.9120 h1         1 R8Z       0.068700
     25 H151       -42.9070   -28.7110     7.0210 h5         1 R8Z       0.051100
     26 H101       -47.4020   -29.9870     2.5030 ha         1 R8Z       0.119000
     27 H201       -46.0180   -31.3150     1.4150 h1         1 R8Z       0.107700
     28 H202       -45.9450   -32.9510     0.7110 h1         1 R8Z       0.107700
     29 H192       -44.4660   -31.4190    -0.6230 hc         1 R8Z       0.056200
     30 H191       -43.4980   -32.6210     0.2050 hc         1 R8Z       0.056200
     31 H011       -45.8950   -27.9230     2.5950 h1         1 R8Z       0.045367
     32 H013       -44.3280   -27.8930     1.7650 h1         1 R8Z       0.045367
     33 H012       -45.6140   -29.0110     1.2250 h1         1 R8Z       0.045367
     34 H071       -50.3090   -29.0980     6.5030 ha         1 R8Z       0.139000
     35 H091       -49.8900   -30.1420     2.3160 ha         1 R8Z       0.133000
     36 H231       -42.6070   -32.3900     2.9910 h1         1 R8Z       0.118200
     37 H232       -43.5120   -31.7270     4.3690 h1         1 R8Z       0.118200
     38 H121       -47.7790   -28.6990     7.7080 hn         1 R8Z       0.371000
     39 C01        -45.1410   -28.5500     2.1020 c3         1 R8Z       0.195100
     40 O22        -46.0050   -32.6100     3.7740 o          1 R8Z      -0.525000
     41 O24        -44.4130   -34.2220     2.6320 o          1 R8Z      -0.525000
@<TRIPOS>BOND
     1     1     2 1   
     2     1     7 1   
     3     1    22 1   
     4     1    23 1   
     5     2    15 1   
     6     2    17 1   
     7     2    24 1   
     8     3    19 ar  
     9     3    20 ar  
    10     3    25 1   
    11     4     9 ar  
    12     4    18 1   
    13     4    19 ar  
    14     5    10 ar  
    15     5    14 ar  
    16     5    26 1   
    17     6     7 1   
    18     6    21 1   
    19     6    27 1   
    20     6    28 1   
    21     7    29 1   
    22     7    30 1   
    23     8     9 ar  
    24     8    17 1   
    25     8    20 ar  
    26     9    10 1   
    27    10    11 ar  
    28    11    12 ar  
    29    11    18 1   
    30    12    13 ar  
    31    12    34 1   
    32    13    14 ar  
    33    13    16 1   
    34    14    35 1   
    35    15    21 1   
    36    15    36 1   
    37    15    37 1   
    38    17    39 1   
    39    18    38 1   
    40    21    40 2   
    41    21    41 2   
    42    31    39 1   
    43    32    39 1   
    44    33    39 1   
@<TRIPOS>SUBSTRUCTURE
     1 R8Z         1 TEMP              0 ****  ****    0 ROOT
