@<TRIPOS>MOLECULE
R90
   45    48     1     0     0
SMALL
abcg2


@<TRIPOS>ATOM
      1 C1          21.8150    -2.6920    45.4760 ca         1 R90      -0.107000
      2 C2          22.4570    -3.9170    45.6290 ca         1 R90      -0.094500
      3 C3          22.0460    -4.8150    46.6140 ca         1 R90      -0.098300
      4 N6          13.9090    -8.7410    40.2290 nc         1 R90      -0.371000
      5 C7          22.0540    -7.1730    45.8390 c          1 R90       0.606100
      6 C8          20.2280    -8.7870    45.7430 cc         1 R90       0.514300
      7 C9          19.0820   -10.3010    44.3020 cc         1 R90       0.649300
      8 C10         17.4710   -11.9650    43.4940 c5         1 R90       0.231500
      9 C11         17.2770   -12.8260    42.2440 c5         1 R90      -0.113400
     10 C12         16.5240   -11.9120    41.2720 c5         1 R90       0.235800
     11 C13         16.1500   -11.1900    43.5710 c5         1 R90       0.218800
     12 C14         15.0020   -10.0380    41.6960 cd         1 R90       0.712300
     13 C15         13.5160    -8.1780    41.3250 cd         1 R90       0.632300
     14 O           22.3710    -7.3260    44.6670 o          1 R90      -0.569100
     15 C6          22.7200    -6.1630    46.7530 c3         1 R90      -0.097100
     16 C4          20.9810    -4.4660    47.4450 ca         1 R90      -0.094500
     17 C5          20.3370    -3.2420    47.2940 ca         1 R90      -0.107000
     18 C           20.7530    -2.3520    46.3090 ca         1 R90      -0.099000
     19 N           21.0320    -7.8800    46.4050 ns         1 R90      -0.470400
     20 S           20.4610    -9.2300    44.0700 ss         1 R90      -0.242800
     21 N2          18.5720   -10.2610    45.5060 nd         1 R90      -0.414000
     22 N1          19.2430    -9.3820    46.3310 nd         1 R90      -0.363000
     23 N3          18.5970   -11.0580    43.2950 nu         1 R90      -0.929100
     24 N4          15.7840   -11.0220    42.1670 nh         1 R90      -0.796300
     25 S1          14.1670    -8.9230    42.7810 ss         1 R90      -0.388800
     26 N7          12.7420    -7.0460    41.3930 nv         1 R90      -1.015900
     27 N5          14.7690    -9.8090    40.4310 nc         1 R90      -0.413000
     28 H1          22.1470    -2.0030    44.7100 ha         1 R90       0.117500
     29 H2          23.2850    -4.1780    44.9810 ha         1 R90       0.114500
     30 H3          17.6290   -12.5610    44.3930 h1         1 R90       0.083700
     31 H4          16.6640   -13.6880    42.5070 hc         1 R90       0.065200
     32 H5          18.2190   -13.1890    41.8350 hc         1 R90       0.065200
     33 H6          15.8450   -12.4610    40.6180 h1         1 R90       0.061700
     34 H7          17.2040   -11.3330    40.6400 h1         1 R90       0.061700
     35 H8          16.2730   -10.2280    44.0680 h1         1 R90       0.071700
     36 H9          15.3980   -11.7700    44.1130 h1         1 R90       0.071700
     37 H10         22.6730    -6.5050    47.7870 hc         1 R90       0.075700
     38 H11         23.7640    -6.0990    46.4520 hc         1 R90       0.075700
     39 H12         20.6560    -5.1540    48.2160 ha         1 R90       0.114500
     40 H13         19.5150    -2.9830    47.9490 ha         1 R90       0.117500
     41 H14         20.2540    -1.3980    46.1920 ha         1 R90       0.116000
     42 H15         20.8050    -7.7290    47.3790 hn         1 R90       0.342500
     43 H16         19.1680   -11.1830    42.4750 hn         1 R90       0.505000
     44 H17         12.2780    -6.8240    40.5220 hn         1 R90       0.463000
     45 H18         12.1230    -6.9790    42.1890 hn         1 R90       0.463000
@<TRIPOS>BOND
     1     1     2 ar  
     2     1    18 ar  
     3     1    28 1   
     4     2     3 ar  
     5     2    29 1   
     6     3    15 1   
     7     3    16 ar  
     8     4    13 2   
     9     4    27 1   
    10     5    14 2   
    11     5    15 1   
    12     5    19 1   
    13     6    19 1   
    14     6    20 1   
    15     6    22 2   
    16     7    20 1   
    17     7    21 2   
    18     7    23 1   
    19     8     9 1   
    20     8    11 1   
    21     8    23 1   
    22     8    30 1   
    23     9    10 1   
    24     9    31 1   
    25     9    32 1   
    26    10    24 1   
    27    10    33 1   
    28    10    34 1   
    29    11    24 1   
    30    11    35 1   
    31    11    36 1   
    32    12    24 1   
    33    12    25 1   
    34    12    27 2   
    35    13    25 1   
    36    13    26 1   
    37    15    37 1   
    38    15    38 1   
    39    16    17 ar  
    40    16    39 1   
    41    17    18 ar  
    42    17    40 1   
    43    18    41 1   
    44    19    42 1   
    45    21    22 1   
    46    23    43 1   
    47    26    44 1   
    48    26    45 1   
@<TRIPOS>SUBSTRUCTURE
     1 R90         1 TEMP              0 ****  ****    0 ROOT
