@<TRIPOS>MOLECULE
R90
   45    48     1     0     0
SMALL
No Charge or Current Charge


@<TRIPOS>ATOM
      1 C1          22.6750    -2.3460    46.9140 ca         1 R90      -0.107000
      2 C2          23.0240    -3.5040    46.1970 ca         1 R90      -0.094500
      3 C3          22.9370    -4.7710    46.8070 ca         1 R90      -0.098300
      4 N6          13.6280   -10.7250    38.8650 nc         1 R90      -0.371000
      5 C7          22.1060    -6.5580    45.2360 c          1 R90       0.606100
      6 C8          20.3420    -8.2980    45.3960 cc         1 R90       0.514300
      7 C9          18.4290    -9.3010    44.4440 cc         1 R90       0.649300
      8 C10         16.4710   -10.8620    44.0690 c5         1 R90       0.231500
      9 C11         17.0210   -12.0550    43.2380 c5         1 R90      -0.113400
     10 C12         16.6000   -11.7260    41.7760 c5         1 R90       0.235800
     11 C13         15.0830   -10.6000    43.3910 c5         1 R90       0.218800
     12 C14         14.4220   -10.7410    40.9410 cd         1 R90       0.712300
     13 C15         12.6810   -10.1370    39.5720 cd         1 R90       0.632300
     14 O           21.7590    -6.0560    44.1770 o          1 R90      -0.569100
     15 C6          23.3100    -6.0280    46.0250 c3         1 R90      -0.097100
     16 C4          22.4960    -4.8670    48.1420 ca         1 R90      -0.094500
     17 C5          22.1480    -3.7090    48.8580 ca         1 R90      -0.107000
     18 C           22.2370    -2.4480    48.2450 ca         1 R90      -0.099000
     19 N           21.4550    -7.6160    45.8240 ns         1 R90      -0.470400
     20 S           19.4370    -7.9950    43.9390 ss         1 R90      -0.242800
     21 N2          18.7610    -9.8800    45.5840 nd         1 R90      -0.414000
     22 N1          19.8820    -9.2910    46.1410 nd         1 R90      -0.363000
     23 N3          17.3550    -9.7110    43.7050 nu         1 R90      -0.929100
     24 N4          15.3220   -10.9970    41.9730 nh         1 R90      -0.796300
     25 S1          12.9120    -9.9500    41.2730 ss         1 R90      -0.388800
     26 N7          11.5610    -9.7060    38.9630 nv         1 R90      -1.015900
     27 N5          14.6830   -11.0920    39.6890 nc         1 R90      -0.413000
     28 H1          22.7440    -1.3710    46.4370 ha         1 R90       0.117500
     29 H2          23.3590    -3.4150    45.1650 ha         1 R90       0.114500
     30 H3          16.3970   -11.0570    45.1490 h1         1 R90       0.083700
     31 H4          16.5480   -12.9880    43.5650 hc         1 R90       0.065200
     32 H5          18.1030   -12.1950    43.3430 hc         1 R90       0.065200
     33 H6          16.4790   -12.6390    41.1770 h1         1 R90       0.061700
     34 H7          17.3440   -11.0890    41.2760 h1         1 R90       0.061700
     35 H8          14.7680    -9.5530    43.4980 h1         1 R90       0.071700
     36 H9          14.3060   -11.2320    43.8440 h1         1 R90       0.071700
     37 H10         23.6630    -6.7940    46.7250 hc         1 R90       0.075700
     38 H11         24.1130    -5.7930    45.3170 hc         1 R90       0.075700
     39 H12         22.4220    -5.8380    48.6280 ha         1 R90       0.114500
     40 H13         21.8080    -3.7880    49.8890 ha         1 R90       0.117500
     41 H14         21.9680    -1.5520    48.8000 ha         1 R90       0.116000
     42 H15         21.8500    -7.9250    46.7000 hn         1 R90       0.342500
     43 H16         17.2120    -9.1980    42.8380 hn         1 R90       0.505000
     44 H17         11.3820   -10.0580    38.0290 hn         1 R90       0.463000
     45 H18         10.7550    -9.5050    39.5440 hn         1 R90       0.463000
@<TRIPOS>BOND
     1     1     2 ar  
     2     1    18 ar  
     3     1    28 1   
     4     2     3 ar  
     5     2    29 1   
     6     3    15 1   
     7     3    16 ar  
     8     4    13 2   
     9     4    27 1   
    10     5    14 2   
    11     5    15 1   
    12     5    19 1   
    13     6    19 1   
    14     6    20 1   
    15     6    22 2   
    16     7    20 1   
    17     7    21 2   
    18     7    23 1   
    19     8     9 1   
    20     8    11 1   
    21     8    23 1   
    22     8    30 1   
    23     9    10 1   
    24     9    31 1   
    25     9    32 1   
    26    10    24 1   
    27    10    33 1   
    28    10    34 1   
    29    11    24 1   
    30    11    35 1   
    31    11    36 1   
    32    12    24 1   
    33    12    25 1   
    34    12    27 2   
    35    13    25 1   
    36    13    26 1   
    37    15    37 1   
    38    15    38 1   
    39    16    17 ar  
    40    16    39 1   
    41    17    18 ar  
    42    17    40 1   
    43    18    41 1   
    44    19    42 1   
    45    21    22 1   
    46    23    43 1   
    47    26    44 1   
    48    26    45 1   
@<TRIPOS>SUBSTRUCTURE
     1 R90         1 TEMP              0 ****  ****    0 ROOT
