@<TRIPOS>MOLECULE
R91
   42    43     1     0     0
SMALL
bcc


@<TRIPOS>ATOM
      1 F2          -2.1840     3.7150     1.1330 f          1 R91      -0.253800
      2 C1          -2.6410     3.0100     0.0700 c3         1 R91       0.609700
      3 F1          -2.0680     3.5580    -1.0220 f          1 R91      -0.253800
      4 O1          -2.3370     1.6940     0.1800 os         1 R91      -0.345900
      5 C2          -1.0580     1.2200     0.0760 ca         1 R91       0.118100
      6 C3          -0.9820    -0.1410    -0.2770 ca         1 R91       0.130100
      7 O2          -2.1580    -0.7510    -0.4860 os         1 R91      -0.296900
      8 C8          -2.1850    -2.1410    -0.7930 c5         1 R91       0.109100
      9 C11         -1.9550    -2.9950     0.4450 c5         1 R91       0.102400
     10 O3          -3.1640    -2.9210     1.1680 os         1 R91      -0.399600
     11 C10         -4.2470    -2.7510     0.2590 c5         1 R91       0.131400
     12 C9          -3.6240    -2.5010    -1.1190 c5         1 R91      -0.112400
     13 C7           0.0940     1.9490     0.3030 ca         1 R91      -0.157000
     14 C6           1.3360     1.3380     0.1800 ca         1 R91      -0.103000
     15 C5           1.4310    -0.0020    -0.1660 ca         1 R91      -0.154600
     16 C4           0.2620    -0.7350    -0.3900 ca         1 R91      -0.157000
     17 C12          2.7420    -0.7000    -0.3110 c          1 R91       0.586700
     18 O4           2.7730    -1.8710    -0.6290 o          1 R91      -0.528100
     19 C13          4.0010     0.0980    -0.0810 c3         1 R91      -0.173400
     20 C14          5.3060    -0.6930    -0.1400 c3         1 R91      -0.050700
     21 C16          6.4810     0.2740    -0.2520 c3         1 R91      -0.089600
     22 C15          5.4760    -1.5920     1.0810 c3         1 R91      -0.089600
     23 H1          -3.7230     3.1070     0.0150 h3         1 R91       0.109700
     24 H2          -1.4980    -2.3710    -1.6120 h1         1 R91       0.066700
     25 H3          -1.7240    -4.0210     0.1270 h1         1 R91       0.058200
     26 H4          -1.1390    -2.6520     1.0840 h1         1 R91       0.058200
     27 H5          -4.8830    -3.6400     0.2500 h1         1 R91       0.049200
     28 H6          -4.8560    -1.9080     0.5930 h1         1 R91       0.049200
     29 H7          -4.1340    -1.7260    -1.6900 hc         1 R91       0.067200
     30 H8          -3.6280    -3.4100    -1.7220 hc         1 R91       0.067200
     31 H9           0.0590     2.9890     0.5930 ha         1 R91       0.156000
     32 H10          2.2170     1.9350     0.3660 ha         1 R91       0.138000
     33 H11          0.3530    -1.7780    -0.6610 ha         1 R91       0.158000
     34 H12          4.0120     0.9010    -0.8280 hc         1 R91       0.063200
     35 H13          3.9300     0.6120     0.8840 hc         1 R91       0.063200
     36 H14          5.2950    -1.3200    -1.0370 hc         1 R91       0.062700
     37 H15          7.4290    -0.2650    -0.2880 hc         1 R91       0.034700
     38 H16          6.4120     0.8880    -1.1510 hc         1 R91       0.034700
     39 H17          6.5160     0.9470     0.6090 hc         1 R91       0.034700
     40 H18          6.4230    -2.1320     1.0360 hc         1 R91       0.034700
     41 H19          5.4820    -0.9990     1.9990 hc         1 R91       0.034700
     42 H20          4.6800    -2.3310     1.1670 hc         1 R91       0.034700
@<TRIPOS>BOND
     1     1     2 1   
     2     2     3 1   
     3     2     4 1   
     4     2    23 1   
     5     4     5 1   
     6     5     6 ar  
     7     5    13 ar  
     8     6     7 1   
     9     6    16 ar  
    10     7     8 1   
    11     8     9 1   
    12     8    12 1   
    13     8    24 1   
    14     9    10 1   
    15     9    25 1   
    16     9    26 1   
    17    10    11 1   
    18    11    12 1   
    19    11    27 1   
    20    11    28 1   
    21    12    29 1   
    22    12    30 1   
    23    13    14 ar  
    24    13    31 1   
    25    14    15 ar  
    26    14    32 1   
    27    15    16 ar  
    28    15    17 1   
    29    16    33 1   
    30    17    18 2   
    31    17    19 1   
    32    19    20 1   
    33    19    34 1   
    34    19    35 1   
    35    20    21 1   
    36    20    22 1   
    37    20    36 1   
    38    21    37 1   
    39    21    38 1   
    40    21    39 1   
    41    22    40 1   
    42    22    41 1   
    43    22    42 1   
@<TRIPOS>SUBSTRUCTURE
     1 R91         1 TEMP              0 ****  ****    0 ROOT
