@<TRIPOS>MOLECULE
R91
   42    43     1     0     0
SMALL
No Charge or Current Charge


@<TRIPOS>ATOM
      1 F2          -1.8890     2.6280     2.1630 f          1 R91      -0.132500
      2 C1          -2.5890     2.5440     1.0070 c3         1 R91       0.390300
      3 F1          -2.3290     3.6660     0.2960 f          1 R91      -0.132500
      4 O1          -2.2380     1.3570     0.2650 os         1 R91      -0.369100
      5 C2          -0.9600     1.0620    -0.1930 ca         1 R91       0.118100
      6 C3          -0.7650    -0.1530    -0.8890 ca         1 R91       0.130100
      7 O2          -1.8480    -0.9870    -1.1120 os         1 R91      -0.320100
      8 C8          -1.6170    -2.2910    -0.5010 c5         1 R91       0.132300
      9 C11         -1.7210    -2.1620     1.0620 c5         1 R91       0.125600
     10 O3          -2.9060    -2.9010     1.4380 os         1 R91      -0.446000
     11 C10         -3.7960    -2.8570     0.3120 c5         1 R91       0.154600
     12 C9          -2.8460    -3.1720    -0.8630 c5         1 R91      -0.112400
     13 C7           0.1470     1.9160     0.0160 ca         1 R91      -0.139000
     14 C6           1.4200     1.5680    -0.4680 ca         1 R91      -0.085000
     15 C5           1.6200     0.3640    -1.1800 ca         1 R91      -0.154600
     16 C4           0.5090    -0.4800    -1.3980 ca         1 R91      -0.139000
     17 C12          2.9770    -0.0400    -1.7260 c          1 R91       0.586700
     18 O4           3.0530    -0.7070    -2.7520 o          1 R91      -0.528100
     19 C13          4.2670     0.3550    -0.9810 c3         1 R91      -0.173400
     20 C14          4.7800    -0.7850    -0.0580 c3         1 R91      -0.050700
     21 C16          6.1590    -0.4340     0.5440 c3         1 R91      -0.089600
     22 C15          3.7660    -1.1490     1.0540 c3         1 R91      -0.089600
     23 H1          -3.6560     2.5320     1.2520 h3         1 R91       0.109700
     24 H2          -0.6760    -2.7370    -0.8460 h1         1 R91       0.066700
     25 H3          -0.8490    -2.5910     1.5730 h1         1 R91       0.058200
     26 H4          -1.8360    -1.1200     1.3890 h1         1 R91       0.058200
     27 H5          -4.5990    -3.5980     0.4300 h1         1 R91       0.049200
     28 H6          -4.2370    -1.8540     0.2320 h1         1 R91       0.049200
     29 H7          -3.2820    -2.9270    -1.8380 hc         1 R91       0.067200
     30 H8          -2.5820    -4.2360    -0.8780 hc         1 R91       0.067200
     31 H9           0.0440     2.8570     0.5470 ha         1 R91       0.138000
     32 H10          2.2370     2.2660    -0.3030 ha         1 R91       0.120000
     33 H11          0.6380    -1.3950    -1.9720 ha         1 R91       0.140000
     34 H12          5.0420     0.5750    -1.7250 hc         1 R91       0.063200
     35 H13          4.1060     1.2310    -0.3480 hc         1 R91       0.063200
     36 H14          4.9200    -1.6800    -0.6790 hc         1 R91       0.062700
     37 H15          6.5410    -1.2640     1.1500 hc         1 R91       0.034700
     38 H16          6.8900    -0.2320    -0.2490 hc         1 R91       0.034700
     39 H17          6.0920     0.4550     1.1830 hc         1 R91       0.034700
     40 H18          4.1690    -1.9370     1.7010 hc         1 R91       0.034700
     41 H19          3.5400    -0.2760     1.6790 hc         1 R91       0.034700
     42 H20          2.8260    -1.5210     0.6280 hc         1 R91       0.034700
@<TRIPOS>BOND
     1     1     2 1   
     2     2     3 1   
     3     2     4 1   
     4     2    23 1   
     5     4     5 1   
     6     5     6 ar  
     7     5    13 ar  
     8     6     7 1   
     9     6    16 ar  
    10     7     8 1   
    11     8     9 1   
    12     8    12 1   
    13     8    24 1   
    14     9    10 1   
    15     9    25 1   
    16     9    26 1   
    17    10    11 1   
    18    11    12 1   
    19    11    27 1   
    20    11    28 1   
    21    12    29 1   
    22    12    30 1   
    23    13    14 ar  
    24    13    31 1   
    25    14    15 ar  
    26    14    32 1   
    27    15    16 ar  
    28    15    17 1   
    29    16    33 1   
    30    17    18 2   
    31    17    19 1   
    32    19    20 1   
    33    19    34 1   
    34    19    35 1   
    35    20    21 1   
    36    20    22 1   
    37    20    36 1   
    38    21    37 1   
    39    21    38 1   
    40    21    39 1   
    41    22    40 1   
    42    22    41 1   
    43    22    42 1   
@<TRIPOS>SUBSTRUCTURE
     1 R91         1 TEMP              0 ****  ****    0 ROOT
