@<TRIPOS>MOLECULE
R92
   38    39     1     0     0
SMALL
abcg2


@<TRIPOS>ATOM
      1 CL6          4.4680     1.7980     0.6930 cl         1 R92      -0.159000
      2 C6           2.9050     1.0940     0.5700 ca         1 R92       0.227000
      3 C1           2.6740    -0.0610    -0.1770 ca         1 R92      -0.268500
      4 S            3.9890    -0.9240    -1.0150 sy         1 R92       1.159600
      5 O1           5.0610    -1.1610    -0.0660 o          1 R92      -0.539500
      6 O2           3.3720    -2.0530    -1.6910 o          1 R92      -0.539500
      7 N1           4.5150     0.1860    -2.0980 n8         1 R92      -1.040100
      8 C5           1.8530     1.7120     1.2240 ca         1 R92      -0.138000
      9 C4           0.5780     1.1760     1.1470 ca         1 R92      -0.032000
     10 C3           0.3370     0.0220     0.4100 ca         1 R92      -0.170600
     11 C2           1.3940    -0.5820    -0.2610 ca         1 R92       0.038000
     12 C           -1.0240    -0.5820     0.2520 c          1 R92       0.610700
     13 O7          -1.2980    -1.2540    -0.7310 o          1 R92      -0.581100
     14 N8          -1.9000    -0.3370     1.2380 ns         1 R92      -0.506900
     15 C9          -3.2600    -0.8410     1.1990 c3         1 R92       0.174000
     16 C16         -3.8660    -0.7410     2.5950 c3         1 R92      -0.104100
     17 C10         -4.1060    -0.0950     0.1870 ca         1 R92      -0.122300
     18 C11         -5.1800    -0.7360    -0.4390 ca         1 R92       0.152100
     19 O11         -5.4070    -2.0300    -0.1240 oh         1 R92      -0.537100
     20 C12         -5.9800    -0.0500    -1.3480 ca         1 R92      -0.203000
     21 C14         -5.7240     1.2830    -1.6350 ca         1 R92      -0.065000
     22 C15         -4.6700     1.9370    -1.0130 ca         1 R92      -0.147000
     23 C13         -3.8760     1.2420    -0.1110 ca         1 R92      -0.063000
     24 H1           4.1080     0.0910    -3.0210 hn         1 R92       0.490500
     25 H2           5.5230     0.2850    -2.1230 hn         1 R92       0.490500
     26 H3           2.0260     2.6170     1.7890 ha         1 R92       0.134000
     27 H4          -0.2230     1.6960     1.6550 ha         1 R92       0.118000
     28 H5           1.2120    -1.4690    -0.8500 ha         1 R92       0.169000
     29 H6          -1.5840     0.1040     2.0870 hn         1 R92       0.315500
     30 H7          -3.2160    -1.8950     0.9170 h1         1 R92       0.087700
     31 H8          -4.8800    -1.1380     2.5910 hc         1 R92       0.045033
     32 H9          -3.2830    -1.3140     3.3170 hc         1 R92       0.045033
     33 H10         -3.9120     0.2970     2.9290 hc         1 R92       0.045033
     34 H11         -6.1520    -2.3730    -0.6300 ho         1 R92       0.466000
     35 H12         -6.8050    -0.5600    -1.8330 ha         1 R92       0.113000
     36 H13         -6.3510     1.8060    -2.3450 ha         1 R92       0.113000
     37 H14         -4.4640     2.9770    -1.2290 ha         1 R92       0.115000
     38 H15         -3.0490     1.7530     0.3670 ha         1 R92       0.109000
@<TRIPOS>BOND
     1     1     2 1   
     2     2     3 ar  
     3     2     8 ar  
     4     3     4 1   
     5     3    11 ar  
     6     4     5 2   
     7     4     6 2   
     8     4     7 1   
     9     7    24 1   
    10     7    25 1   
    11     8     9 ar  
    12     8    26 1   
    13     9    10 ar  
    14     9    27 1   
    15    10    11 ar  
    16    10    12 1   
    17    11    28 1   
    18    12    13 2   
    19    12    14 1   
    20    14    15 1   
    21    14    29 1   
    22    15    16 1   
    23    15    17 1   
    24    15    30 1   
    25    16    31 1   
    26    16    32 1   
    27    16    33 1   
    28    17    18 ar  
    29    17    23 ar  
    30    18    19 1   
    31    18    20 ar  
    32    19    34 1   
    33    20    21 ar  
    34    20    35 1   
    35    21    22 ar  
    36    21    36 1   
    37    22    23 ar  
    38    22    37 1   
    39    23    38 1   
@<TRIPOS>SUBSTRUCTURE
     1 R92         1 TEMP              0 ****  ****    0 ROOT
