@<TRIPOS>MOLECULE
R92
   38    39     1     0     0
SMALL
No Charge or Current Charge


@<TRIPOS>ATOM
      1 Cl6          4.2630     2.3770    -0.4500 cl         1 R92      -0.159000
      2 C6           2.8430     1.3650    -0.1720 ca         1 R92       0.227000
      3 C1           2.9070    -0.0390    -0.0520 ca         1 R92      -0.268500
      4 S            4.4620    -0.9290    -0.1440 sy         1 R92       1.159600
      5 O1           5.5200    -0.2330     0.5830 o          1 R92      -0.539500
      6 O2           4.2470    -2.3670     0.0040 o          1 R92      -0.539500
      7 N1           4.9070    -0.7630    -1.7010 n8         1 R92      -1.040100
      8 C5           1.6010     2.0120    -0.0870 ca         1 R92      -0.138000
      9 C4           0.4190     1.2820     0.1120 ca         1 R92      -0.032000
     10 C3           0.4630    -0.1260     0.2270 ca         1 R92      -0.170600
     11 C2           1.7160    -0.7740     0.1410 ca         1 R92       0.038000
     12 C           -0.7830    -0.9590     0.4390 c          1 R92       0.610700
     13 O7          -0.7370    -2.1760     0.5420 o          1 R92      -0.581100
     14 N8          -1.9780    -0.2780     0.5060 ns         1 R92      -0.506900
     15 C9          -3.2860    -0.8970     0.7150 c3         1 R92       0.174000
     16 C16         -3.4830    -1.2950     2.1930 c3         1 R92      -0.104100
     17 C10         -4.3940     0.0400     0.2250 ca         1 R92      -0.122300
     18 C11         -5.2730    -0.3320    -0.8200 ca         1 R92       0.152100
     19 O11         -5.1680    -1.5500    -1.4280 oh         1 R92      -0.537100
     20 C12         -6.2780     0.5510    -1.2490 ca         1 R92      -0.203000
     21 C14         -6.4210     1.8110    -0.6470 ca         1 R92      -0.065000
     22 C15         -5.5540     2.1890     0.3900 ca         1 R92      -0.147000
     23 C13         -4.5480     1.3110     0.8240 ca         1 R92      -0.063000
     24 H1           5.1730    -1.7230    -1.9130 hn         1 R92       0.490500
     25 H2           5.8130    -0.3170    -1.5730 hn         1 R92       0.490500
     26 H3           1.5550     3.0940    -0.1810 ha         1 R92       0.134000
     27 H4          -0.5180     1.8290     0.1710 ha         1 R92       0.118000
     28 H5           1.7590    -1.8600     0.2290 ha         1 R92       0.169000
     29 H6          -1.9430     0.7250     0.3900 hn         1 R92       0.315500
     30 H7          -3.3080    -1.8240     0.1270 h1         1 R92       0.087700
     31 H8          -4.4730    -1.7450     2.3370 hc         1 R92       0.045033
     32 H9          -2.7310    -2.0290     2.5030 hc         1 R92       0.045033
     33 H10         -3.4020    -0.4230     2.8530 hc         1 R92       0.045033
     34 H11         -5.8620    -1.6100    -2.1180 ho         1 R92       0.466000
     35 H12         -6.9550     0.2660    -2.0520 ha         1 R92       0.113000
     36 H13         -7.2000     2.4920    -0.9820 ha         1 R92       0.113000
     37 H14         -5.6620     3.1650     0.8580 ha         1 R92       0.115000
     38 H15         -3.8850     1.6220     1.6280 ha         1 R92       0.109000
@<TRIPOS>BOND
     1     1     2 1   
     2     2     3 ar  
     3     2     8 ar  
     4     3     4 1   
     5     3    11 ar  
     6     4     5 2   
     7     4     6 2   
     8     4     7 1   
     9     7    24 1   
    10     7    25 1   
    11     8     9 ar  
    12     8    26 1   
    13     9    10 ar  
    14     9    27 1   
    15    10    11 ar  
    16    10    12 1   
    17    11    28 1   
    18    12    13 2   
    19    12    14 1   
    20    14    15 1   
    21    14    29 1   
    22    15    16 1   
    23    15    17 1   
    24    15    30 1   
    25    16    31 1   
    26    16    32 1   
    27    16    33 1   
    28    17    18 ar  
    29    17    23 ar  
    30    18    19 1   
    31    18    20 ar  
    32    19    34 1   
    33    20    21 ar  
    34    20    35 1   
    35    21    22 ar  
    36    21    36 1   
    37    22    23 ar  
    38    22    37 1   
    39    23    38 1   
@<TRIPOS>SUBSTRUCTURE
     1 R92         1 TEMP              0 ****  ****    0 ROOT
