@<TRIPOS>MOLECULE
R93
   55    59     1     0     0
SMALL
abcg2


@<TRIPOS>ATOM
      1 O20          7.9790     2.4060     0.8800 o          1 R93      -0.556100
      2 C18          6.7960     2.1280     0.8290 c          1 R93       0.613700
      3 N8           5.8660     2.6220     1.6700 ns         1 R93      -0.382400
      4 O21          6.2120     3.6030     2.5480 oh         1 R93      -0.427100
      5 C30          6.2290     1.1510    -0.1530 ca         1 R93      -0.152600
      6 C29          6.4760     1.2960    -1.5240 ca         1 R93      -0.013300
      7 C32          7.2500     2.4540    -2.0840 c3         1 R93      -0.057800
      8 C28          5.9650     0.3250    -2.3810 ca         1 R93      -0.112000
      9 C27          5.2470    -0.7650    -1.9110 ca         1 R93      -0.074000
     10 C31          5.5010     0.0690     0.3300 ca         1 R93      -0.074000
     11 C26          5.0280    -0.8820    -0.5530 ca         1 R93       0.100100
     12 O25          4.3730    -1.9940    -0.0550 os         1 R93      -0.326700
     13 C23          3.0510    -1.9340     0.0330 cc         1 R93       0.629100
     14 N21          2.3990    -3.0120     0.5280 na         1 R93      -0.322600
     15 C12          1.0640    -2.6900     0.5120 ca         1 R93      -0.073200
     16 C11         -0.0690    -3.3810     0.8980 ca         1 R93      -0.106000
     17 C10         -1.2770    -2.7240     0.7300 ca         1 R93       0.140000
     18 CL1         -2.7100    -3.5510     1.2600 cl         1 R93      -0.195000
     19 N22          2.2870    -0.9440    -0.3060 nd         1 R93      -0.634100
     20 C13          1.0160    -1.3890    -0.0150 ca         1 R93       0.091400
     21 C14         -0.2100    -0.7600    -0.1690 ca         1 R93      -0.045000
     22 C7          -1.3770    -1.4270     0.1990 cp         1 R93      -0.040000
     23 C2          -2.6760    -0.7370     0.0300 cp         1 R93      -0.038000
     24 C21         -2.9170     0.4670     0.6890 ca         1 R93      -0.093500
     25 C3          -3.6630    -1.2390    -0.8140 ca         1 R93      -0.093500
     26 C4          -4.8580    -0.5590    -0.9870 ca         1 R93      -0.095000
     27 C5          -5.1070     0.6390    -0.3190 cp         1 R93      -0.015000
     28 C6          -4.1160     1.1430     0.5220 ca         1 R93      -0.095000
     29 C34         -6.3790     1.3610    -0.5420 cp         1 R93      -0.073000
     30 C9          -6.7960     1.6600    -1.8380 ca         1 R93      -0.064000
     31 C35         -7.9890     2.3210    -2.0870 ca         1 R93      -0.149000
     32 C33         -8.7930     2.6930    -1.0200 ca         1 R93      -0.065000
     33 C8          -8.4080     2.3990     0.2800 ca         1 R93      -0.210000
     34 C1          -7.2080     1.7340     0.5240 ca         1 R93       0.152100
     35 O23         -6.8180     1.4090     1.7720 oh         1 R93      -0.526100
     36 H1           4.8790     2.5710     1.4570 hn         1 R93       0.341500
     37 H2           6.3150     3.1690     3.4060 ho         1 R93       0.447000
     38 H3           8.3120     2.3700    -1.8570 hc         1 R93       0.056033
     39 H4           7.1430     2.4940    -3.1670 hc         1 R93       0.056033
     40 H5           6.9070     3.4070    -1.6810 hc         1 R93       0.056033
     41 H6           6.1330     0.4200    -3.4460 ha         1 R93       0.124000
     42 H7           4.8720    -1.5140    -2.5970 ha         1 R93       0.133000
     43 H8           5.3260    -0.0490     1.3930 ha         1 R93       0.133000
     44 H9           2.8190    -3.8700     0.8530 hn         1 R93       0.372000
     45 H10         -0.0220    -4.3760     1.3190 ha         1 R93       0.135000
     46 H12         -0.2690     0.2380    -0.5830 ha         1 R93       0.138000
     47 H13         -2.1620     0.8800     1.3460 ha         1 R93       0.116500
     48 H14         -3.4970    -2.1640    -1.3510 ha         1 R93       0.116500
     49 H15         -5.6110    -0.9740    -1.6450 ha         1 R93       0.117000
     50 H16         -4.2690     2.0800     1.0410 ha         1 R93       0.117000
     51 H17         -6.1580     1.3770    -2.6670 ha         1 R93       0.118000
     52 H18         -8.2850     2.5460    -3.1030 ha         1 R93       0.117000
     53 H19         -9.7270     3.2130    -1.1920 ha         1 R93       0.113000
     54 H20         -9.0470     2.6800     1.1100 ha         1 R93       0.113000
     55 H21         -7.4770     1.7000     2.4130 ho         1 R93       0.463000
@<TRIPOS>BOND
     1     1     2 2   
     2     2     3 1   
     3     2     5 1   
     4     3     4 1   
     5     3    36 1   
     6     4    37 1   
     7     5     6 ar  
     8     5    10 ar  
     9     6     7 1   
    10     6     8 ar  
    11     7    38 1   
    12     7    39 1   
    13     7    40 1   
    14     8     9 ar  
    15     8    41 1   
    16     9    11 ar  
    17     9    42 1   
    18    10    11 ar  
    19    10    43 1   
    20    11    12 1   
    21    12    13 1   
    22    13    14 1   
    23    13    19 2   
    24    14    15 1   
    25    14    44 1   
    26    15    16 ar  
    27    15    20 ar  
    28    16    17 ar  
    29    16    45 1   
    30    17    18 1   
    31    17    22 ar  
    32    19    20 1   
    33    20    21 ar  
    34    21    22 ar  
    35    21    46 1   
    36    22    23 1   
    37    23    24 ar  
    38    23    25 ar  
    39    24    28 ar  
    40    24    47 1   
    41    25    26 ar  
    42    25    48 1   
    43    26    27 ar  
    44    26    49 1   
    45    27    28 ar  
    46    27    29 1   
    47    28    50 1   
    48    29    30 ar  
    49    29    34 ar  
    50    30    31 ar  
    51    30    51 1   
    52    31    32 ar  
    53    31    52 1   
    54    32    33 ar  
    55    32    53 1   
    56    33    34 ar  
    57    33    54 1   
    58    34    35 1   
    59    35    55 1   
@<TRIPOS>SUBSTRUCTURE
     1 R93         1 TEMP              0 ****  ****    0 ROOT
