@<TRIPOS>MOLECULE
R93
   55    59     1     0     0
SMALL
No Charge or Current Charge


@<TRIPOS>ATOM
      1 O20          8.2000     2.8420     0.2590 o          1 R93      -0.556100
      2 C18          7.2860     2.1700     0.7210 c          1 R93       0.613700
      3 N8           7.0360     2.1500     2.0910 ns         1 R93      -0.382400
      4 O21          7.6410     3.1270     2.9760 oh         1 R93      -0.427100
      5 C30          6.4080     1.2590    -0.1260 ca         1 R93      -0.152600
      6 C29          6.1770     1.4950    -1.5130 ca         1 R93      -0.013300
      7 C32          6.7410     2.7080    -2.2500 c3         1 R93      -0.057800
      8 C28          5.3780     0.5970    -2.2510 ca         1 R93      -0.112000
      9 C27          4.7950    -0.5220    -1.6400 ca         1 R93      -0.074000
     10 C31          5.8080     0.1200     0.4730 ca         1 R93      -0.074000
     11 C26          4.9890    -0.7470    -0.2670 ca         1 R93       0.100100
     12 O25          4.4790    -1.8730     0.3530 os         1 R93      -0.326700
     13 C23          3.0990    -1.9080     0.3320 cc         1 R93       0.629100
     14 N21          2.3860    -3.0300     0.7040 na         1 R93      -0.322600
     15 C12          1.0710    -2.6920     0.5950 ca         1 R93      -0.073200
     16 C11         -0.0790    -3.4460     0.8450 ca         1 R93      -0.106000
     17 C10         -1.3300    -2.8230     0.6490 ca         1 R93       0.140000
     18 Cl1         -2.7740    -3.7670     1.0180 cl         1 R93      -0.195000
     19 N22          2.3080    -0.8620     0.0110 nd         1 R93      -0.634100
     20 C13          1.0280    -1.3890     0.1800 ca         1 R93       0.091400
     21 C14         -0.2000    -0.7470    -0.0200 ca         1 R93      -0.045000
     22 C7          -1.4100    -1.4620     0.2050 cp         1 R93      -0.040000
     23 C2          -2.7160    -0.7700    -0.0180 cp         1 R93      -0.038000
     24 C21         -2.9810     0.4770     0.5930 ca         1 R93      -0.093500
     25 C3          -3.7050    -1.3150    -0.8710 ca         1 R93      -0.093500
     26 C4          -4.9220    -0.6470    -1.0870 ca         1 R93      -0.095000
     27 C5          -5.1990     0.5920    -0.4590 cp         1 R93      -0.015000
     28 C6          -4.1990     1.1450     0.3780 ca         1 R93      -0.095000
     29 C34         -6.4940     1.3020    -0.7110 cp         1 R93      -0.073000
     30 C9          -6.9720     1.4290    -2.0390 ca         1 R93      -0.064000
     31 C35         -8.1800     2.0900    -2.3180 ca         1 R93      -0.149000
     32 C33         -8.9390     2.6350    -1.2730 ca         1 R93      -0.065000
     33 C8          -8.4910     2.5160     0.0520 ca         1 R93      -0.210000
     34 C1          -7.2820     1.8560     0.3380 ca         1 R93       0.152100
     35 O23         -6.9090     1.7400     1.6460 oh         1 R93      -0.526100
     36 H1           6.1750     1.7210     2.4250 hn         1 R93       0.341500
     37 H2           8.0040     2.5810     3.7130 ho         1 R93       0.447000
     38 H3           7.8240     2.6170    -2.3920 hc         1 R93       0.056033
     39 H4           6.2940     2.8260    -3.2450 hc         1 R93       0.056033
     40 H5           6.5420     3.6360    -1.7020 hc         1 R93       0.056033
     41 H6           5.2050     0.7650    -3.3120 ha         1 R93       0.124000
     42 H7           4.1940    -1.2100    -2.2290 ha         1 R93       0.133000
     43 H8           5.9840    -0.1230     1.5180 ha         1 R93       0.133000
     44 H9           2.7840    -3.9100     0.9980 hn         1 R93       0.372000
     45 H10         -0.0160    -4.4760     1.1870 ha         1 R93       0.135000
     46 H12         -0.2230     0.2860    -0.3550 ha         1 R93       0.138000
     47 H13         -2.2360     0.9280     1.2440 ha         1 R93       0.116500
     48 H14         -3.5210    -2.2600    -1.3760 ha         1 R93       0.116500
     49 H15         -5.6630    -1.0960    -1.7430 ha         1 R93       0.117000
     50 H16         -4.3680     2.1060     0.8570 ha         1 R93       0.117000
     51 H17         -6.3910     1.0200    -2.8630 ha         1 R93       0.118000
     52 H18         -8.5250     2.1800    -3.3450 ha         1 R93       0.117000
     53 H19         -9.8750     3.1470    -1.4890 ha         1 R93       0.113000
     54 H20         -9.0920     2.9360     0.8550 ha         1 R93       0.113000
     55 H21         -7.5950     2.1670     2.2010 ho         1 R93       0.463000
@<TRIPOS>BOND
     1     1     2 2   
     2     2     3 1   
     3     2     5 1   
     4     3     4 1   
     5     3    36 1   
     6     4    37 1   
     7     5     6 ar  
     8     5    10 ar  
     9     6     7 1   
    10     6     8 ar  
    11     7    38 1   
    12     7    39 1   
    13     7    40 1   
    14     8     9 ar  
    15     8    41 1   
    16     9    11 ar  
    17     9    42 1   
    18    10    11 ar  
    19    10    43 1   
    20    11    12 1   
    21    12    13 1   
    22    13    14 1   
    23    13    19 2   
    24    14    15 1   
    25    14    44 1   
    26    15    16 ar  
    27    15    20 ar  
    28    16    17 ar  
    29    16    45 1   
    30    17    18 1   
    31    17    22 ar  
    32    19    20 1   
    33    20    21 ar  
    34    21    22 ar  
    35    21    46 1   
    36    22    23 1   
    37    23    24 ar  
    38    23    25 ar  
    39    24    28 ar  
    40    24    47 1   
    41    25    26 ar  
    42    25    48 1   
    43    26    27 ar  
    44    26    49 1   
    45    27    28 ar  
    46    27    29 1   
    47    28    50 1   
    48    29    30 ar  
    49    29    34 ar  
    50    30    31 ar  
    51    30    51 1   
    52    31    32 ar  
    53    31    52 1   
    54    32    33 ar  
    55    32    53 1   
    56    33    34 ar  
    57    33    54 1   
    58    34    35 1   
    59    35    55 1   
@<TRIPOS>SUBSTRUCTURE
     1 R93         1 TEMP              0 ****  ****    0 ROOT
