@<TRIPOS>MOLECULE
R94
   75    79     1     0     0
SMALL
No Charge or Current Charge


@<TRIPOS>ATOM
      1 O62          3.0740     3.4550    -2.6210 o          1 R94      -0.513100
      2 C61          2.6510     2.8350    -1.6500 c          1 R94       0.608300
      3 C71          3.5920     2.3220    -0.6040 ca         1 R94      -0.179600
      4 C72          4.1410     3.1830     0.3600 ca         1 R94       0.143100
      5 C73          4.9990     2.6730     1.3470 ca         1 R94      -0.190000
      6 C74          5.3100     1.3000     1.3720 ca         1 R94      -0.105000
      7 C75          4.7680     0.4240     0.4090 ca         1 R94       0.241000
      8 N91          5.0730    -0.9590     0.4130 nh         1 R94      -0.781400
      9 C92          5.3300    -1.6790     1.6920 c6         1 R94       0.194300
     10 C93          4.9660    -3.1790     1.5700 c6         1 R94      -0.078900
     11 C94          5.7050    -3.8410     0.3830 c6         1 R94      -0.074400
     12 C95          5.4230    -3.0600    -0.9210 c6         1 R94      -0.078900
     13 C96          5.7640    -1.5570    -0.7650 c6         1 R94       0.194300
     14 C76          3.9090     0.9480    -0.5750 ca         1 R94      -0.060000
     15 O92          3.8280     4.5090     0.3590 oh         1 R94      -0.527100
     16 C54          1.1800     2.5220    -1.4850 ca         1 R94      -0.131600
     17 C55          0.2950     2.6770    -2.5710 ca         1 R94      -0.070000
     18 C56         -1.0700     2.3750    -2.4310 ca         1 R94      -0.090000
     19 C53          0.6640     2.0750    -0.2490 ca         1 R94      -0.070000
     20 C52         -0.7040     1.7880    -0.1040 ca         1 R94      -0.090000
     21 C51         -1.5920     1.9280    -1.1970 ca         1 R94      -0.138600
     22 C42         -3.0590     1.5630    -1.0980 c          1 R94       0.609700
     23 O43         -3.7710     1.4630    -2.0890 o          1 R94      -0.617100
     24 N41         -3.5420     1.2820     0.1620 ns         1 R94      -0.495900
     25 C37         -4.7990     0.5610     0.4310 c3         1 R94       0.106700
     26 C36         -5.5240     1.2320     1.6240 c3         1 R94      -0.081400
     27 C35         -6.9970     0.8100     1.8340 c3         1 R94      -0.068400
     28 C34         -7.2510    -0.7080     1.9620 c3         1 R94       0.168800
     29 N33         -7.0830    -1.3630     0.6510 n7         1 R94      -0.884400
     30 C32         -5.7400    -1.8930     0.3080 c3         1 R94       0.165800
     31 C31         -4.5410    -0.9660     0.6650 c3         1 R94       0.087700
     32 N23         -3.3180    -1.4310    -0.0210 ns         1 R94      -0.490900
     33 C21         -2.0700    -1.4850     0.5640 c          1 R94       0.611700
     34 O22         -1.9270    -1.3770     1.7740 o          1 R94      -0.612100
     35 C14         -0.8860    -1.6180    -0.3700 ca         1 R94      -0.118600
     36 C13          0.4200    -1.7530     0.1520 ca         1 R94      -0.129000
     37 C12          1.5180    -1.8340    -0.7190 ca         1 R94       0.329400
     38 N11          1.3980    -1.7820    -2.0640 nb         1 R94      -0.650000
     39 C16          0.1550    -1.6450    -2.5770 ca         1 R94       0.329400
     40 C15         -1.0020    -1.5620    -1.7810 ca         1 R94      -0.129000
     41 H73          5.4270     3.3310     2.1000 ha         1 R94       0.114000
     42 H74          5.9830     0.9230     2.1370 ha         1 R94       0.115000
     43 H921         6.3900    -1.5830     1.9700 h1         1 R94       0.035700
     44 H922         4.7320    -1.2390     2.5040 h1         1 R94       0.035700
     45 H931         5.2170    -3.6980     2.5050 hc         1 R94       0.048700
     46 H932         3.8810    -3.2830     1.4360 hc         1 R94       0.048700
     47 H941         6.7860    -3.8570     0.5810 hc         1 R94       0.040200
     48 H942         5.3860    -4.8870     0.2740 hc         1 R94       0.040200
     49 H951         6.0070    -3.4870    -1.7480 hc         1 R94       0.048700
     50 H952         4.3660    -3.1700    -1.1990 hc         1 R94       0.048700
     51 H961         5.4780    -1.0340    -1.6890 h1         1 R94       0.035700
     52 H962         6.8520    -1.4440    -0.6510 h1         1 R94       0.035700
     53 H76          3.4820     0.2810    -1.3190 ha         1 R94       0.135000
     54 H92          4.3090     4.9430     1.0970 ho         1 R94       0.466000
     55 H55          0.6650     3.0190    -3.5360 ha         1 R94       0.129500
     56 H56         -1.7240     2.4880    -3.2930 ha         1 R94       0.131000
     57 H53          1.3160     1.9490     0.6130 ha         1 R94       0.129500
     58 H52         -1.0500     1.4340     0.8640 ha         1 R94       0.131000
     59 H41         -2.9010     1.4150     0.9320 hn         1 R94       0.321500
     60 H37         -5.4440     0.6630    -0.4530 h1         1 R94       0.099700
     61 H361        -4.9600     1.0390     2.5450 hc         1 R94       0.045200
     62 H362        -5.5080     2.3200     1.4790 hc         1 R94       0.045200
     63 H351        -7.3650     1.2970     2.7450 hc         1 R94       0.047700
     64 H352        -7.6060     1.2050     1.0110 hc         1 R94       0.047700
     65 H341        -6.6020    -1.1500     2.7310 h1         1 R94       0.032200
     66 H342        -8.2890    -0.8380     2.2970 h1         1 R94       0.032200
     67 H33         -7.7450    -2.1480     0.5950 hn         1 R94       0.423000
     68 H321        -5.5780    -2.8530     0.8180 h1         1 R94       0.036700
     69 H322        -5.7100    -2.1010    -0.7700 h1         1 R94       0.036700
     70 H31         -4.3740    -1.0920     1.7430 h1         1 R94       0.075700
     71 H23         -3.3530    -1.5450    -1.0250 hn         1 R94       0.327500
     72 H13          0.5930    -1.7910     1.2240 ha         1 R94       0.139500
     73 H12          2.5260    -1.9390    -0.3240 h4         1 R94       0.024600
     74 H16          0.0820    -1.5980    -3.6630 h4         1 R94       0.024600
     75 H15         -1.9590    -1.4390    -2.2770 ha         1 R94       0.139500
@<TRIPOS>BOND
     1     1     2 2   
     2     2     3 1   
     3     2    16 1   
     4     3     4 ar  
     5     3    14 ar  
     6     4     5 ar  
     7     4    15 1   
     8     5     6 ar  
     9     5    41 1   
    10     6     7 ar  
    11     6    42 1   
    12     7     8 1   
    13     7    14 ar  
    14     8     9 1   
    15     8    13 1   
    16     9    10 1   
    17     9    43 1   
    18     9    44 1   
    19    10    11 1   
    20    10    45 1   
    21    10    46 1   
    22    11    12 1   
    23    11    47 1   
    24    11    48 1   
    25    12    13 1   
    26    12    49 1   
    27    12    50 1   
    28    13    51 1   
    29    13    52 1   
    30    14    53 1   
    31    15    54 1   
    32    16    17 ar  
    33    16    19 ar  
    34    17    18 ar  
    35    17    55 1   
    36    18    21 ar  
    37    18    56 1   
    38    19    20 ar  
    39    19    57 1   
    40    20    21 ar  
    41    20    58 1   
    42    21    22 1   
    43    22    23 2   
    44    22    24 1   
    45    24    25 1   
    46    24    59 1   
    47    25    26 1   
    48    25    31 1   
    49    25    60 1   
    50    26    27 1   
    51    26    61 1   
    52    26    62 1   
    53    27    28 1   
    54    27    63 1   
    55    27    64 1   
    56    28    29 1   
    57    28    65 1   
    58    28    66 1   
    59    29    30 1   
    60    29    67 1   
    61    30    31 1   
    62    30    68 1   
    63    30    69 1   
    64    31    32 1   
    65    31    70 1   
    66    32    33 1   
    67    32    71 1   
    68    33    34 2   
    69    33    35 1   
    70    35    36 ar  
    71    35    40 ar  
    72    36    37 ar  
    73    36    72 1   
    74    37    38 ar  
    75    37    73 1   
    76    38    39 ar  
    77    39    40 ar  
    78    39    74 1   
    79    40    75 1   
@<TRIPOS>SUBSTRUCTURE
     1 R94         1 TEMP              0 ****  ****    0 ROOT
