@<TRIPOS>MOLECULE
R94
   75    79     1     0     0
SMALL
bcc


@<TRIPOS>ATOM
      1 O62          3.0780     1.7780    -2.6160 o          1 R94      -0.513100
      2 C61          2.6110     1.6600    -1.5020 c          1 R94       0.608300
      3 C71          3.5000     1.4280    -0.3300 ca         1 R94      -0.179600
      4 C72          3.4090     2.2050     0.8300 ca         1 R94       0.143100
      5 C73          4.2660     1.9290     1.8850 ca         1 R94      -0.208000
      6 C74          5.2020     0.9090     1.7920 ca         1 R94      -0.123000
      7 C75          5.3150     0.1260     0.6410 ca         1 R94       0.102600
      8 N91          6.2140    -0.9430     0.5210 nh         1 R94      -0.643000
      9 C92          6.8120    -1.4440     1.7440 c6         1 R94       0.194300
     10 C93          7.4240    -2.8180     1.5140 c6         1 R94      -0.078900
     11 C94          8.4370    -2.7900     0.3780 c6         1 R94      -0.074400
     12 C95          7.8030    -2.1950    -0.8720 c6         1 R94      -0.078900
     13 C96          7.1790    -0.8430    -0.5710 c6         1 R94       0.194300
     14 C76          4.4520     0.4210    -0.4160 ca         1 R94      -0.078000
     15 O92          2.5100     3.2080     0.8530 oh         1 R94      -0.488100
     16 C54          1.1380     1.6720    -1.2920 ca         1 R94      -0.131600
     17 C55          0.3130     2.2680    -2.2450 ca         1 R94      -0.088000
     18 C56         -1.0610     2.2350    -2.0980 ca         1 R94      -0.108000
     19 C53          0.5620     1.0330    -0.1990 ca         1 R94      -0.088000
     20 C52         -0.8140     0.9930    -0.0560 ca         1 R94      -0.108000
     21 C51         -1.6380     1.6050    -0.9970 ca         1 R94      -0.138600
     22 C42         -3.1320     1.5350    -0.9250 c          1 R94       0.676700
     23 O43         -3.8060     1.6040    -1.9460 o          1 R94      -0.617100
     24 N41         -3.6660     1.3820     0.2960 ns         1 R94      -0.562900
     25 C37         -5.0650     1.0870     0.5160 c3         1 R94       0.106700
     26 C36         -5.4680     1.6520     1.8810 c3         1 R94      -0.081400
     27 C35         -6.9660     1.6970     2.1660 c3         1 R94      -0.068400
     28 C34         -7.7370     0.4140     1.8850 c3         1 R94       0.168800
     29 N33         -7.7360     0.1160     0.4610 n7         1 R94      -0.829200
     30 C32         -6.7340    -0.8190     0.0060 c3         1 R94       0.165800
     31 C31         -5.3210    -0.4520     0.4690 c3         1 R94       0.087700
     32 N23         -4.3780    -1.1570    -0.3670 ns         1 R94      -0.557900
     33 C21         -3.2240    -1.6640     0.0960 c          1 R94       0.678700
     34 O22         -2.9270    -1.7030     1.2810 o          1 R94      -0.612100
     35 C14         -2.2760    -2.1970    -0.9360 ca         1 R94      -0.118600
     36 C13         -1.4040    -3.2170    -0.5790 ca         1 R94      -0.212300
     37 C12         -0.4930    -3.6740    -1.5170 ca         1 R94       0.394700
     38 N11         -0.3890    -3.1720    -2.7430 nb         1 R94      -0.650000
     39 C16         -1.2120    -2.1860    -3.0740 ca         1 R94       0.394700
     40 C15         -2.1720    -1.6690    -2.2170 ca         1 R94      -0.212300
     41 H73          4.2220     2.5250     2.7900 ha         1 R94       0.132000
     42 H74          5.8540     0.7370     2.6380 ha         1 R94       0.133000
     43 H921         7.5870    -0.7620     2.1320 h1         1 R94       0.035700
     44 H922         6.0400    -1.5170     2.5120 h1         1 R94       0.035700
     45 H931         7.8910    -3.1560     2.4420 hc         1 R94       0.048700
     46 H932         6.6250    -3.5290     1.2820 hc         1 R94       0.048700
     47 H941         9.2980    -2.1810     0.6740 hc         1 R94       0.040200
     48 H942         8.8180    -3.7930     0.1770 hc         1 R94       0.040200
     49 H951         8.5440    -2.0760    -1.6650 hc         1 R94       0.048700
     50 H952         7.0290    -2.8670    -1.2550 hc         1 R94       0.048700
     51 H961         6.6800    -0.4620    -1.4620 h1         1 R94       0.035700
     52 H962         7.9710    -0.1190    -0.3190 h1         1 R94       0.035700
     53 H76          4.4860    -0.1820    -1.3160 ha         1 R94       0.153000
     54 H92          2.5090     3.6390     1.7150 ho         1 R94       0.427000
     55 H55          0.7460     2.7630    -3.1040 ha         1 R94       0.147500
     56 H56         -1.6900     2.7000    -2.8450 ha         1 R94       0.149000
     57 H53          1.1800     0.5320     0.5340 ha         1 R94       0.147500
     58 H52         -1.2260     0.4500     0.7840 ha         1 R94       0.149000
     59 H41         -3.0590     1.3840     1.1010 hn         1 R94       0.321500
     60 H37         -5.6350     1.5730    -0.2770 h1         1 R94       0.099700
     61 H361        -4.9650     1.0650     2.6570 hc         1 R94       0.045200
     62 H362        -5.0800     2.6700     1.9640 hc         1 R94       0.045200
     63 H351        -7.1020     1.9770     3.2130 hc         1 R94       0.047700
     64 H352        -7.4210     2.4910     1.5690 hc         1 R94       0.047700
     65 H341        -7.3520    -0.4170     2.4950 h1         1 R94       0.032200
     66 H342        -8.7710     0.5640     2.2010 h1         1 R94       0.032200
     67 H33         -8.6440    -0.2170     0.1700 hn         1 R94       0.367800
     68 H321        -6.9200    -1.8540     0.3270 h1         1 R94       0.036700
     69 H322        -6.7600    -0.8200    -1.0890 h1         1 R94       0.036700
     70 H31         -5.1710    -0.8310     1.4820 h1         1 R94       0.075700
     71 H23         -4.5570    -1.1800    -1.3600 hn         1 R94       0.327500
     72 H13         -1.4300    -3.6560     0.4090 ha         1 R94       0.157500
     73 H12          0.1880    -4.4790    -1.2630 h4         1 R94       0.024600
     74 H16         -1.1050    -1.7760    -4.0720 h4         1 R94       0.024600
     75 H15         -2.7890    -0.8490    -2.5610 ha         1 R94       0.157500
@<TRIPOS>BOND
     1     1     2 2   
     2     2     3 1   
     3     2    16 1   
     4     3     4 ar  
     5     3    14 ar  
     6     4     5 ar  
     7     4    15 1   
     8     5     6 ar  
     9     5    41 1   
    10     6     7 ar  
    11     6    42 1   
    12     7     8 1   
    13     7    14 ar  
    14     8     9 1   
    15     8    13 1   
    16     9    10 1   
    17     9    43 1   
    18     9    44 1   
    19    10    11 1   
    20    10    45 1   
    21    10    46 1   
    22    11    12 1   
    23    11    47 1   
    24    11    48 1   
    25    12    13 1   
    26    12    49 1   
    27    12    50 1   
    28    13    51 1   
    29    13    52 1   
    30    14    53 1   
    31    15    54 1   
    32    16    17 ar  
    33    16    19 ar  
    34    17    18 ar  
    35    17    55 1   
    36    18    21 ar  
    37    18    56 1   
    38    19    20 ar  
    39    19    57 1   
    40    20    21 ar  
    41    20    58 1   
    42    21    22 1   
    43    22    23 2   
    44    22    24 1   
    45    24    25 1   
    46    24    59 1   
    47    25    26 1   
    48    25    31 1   
    49    25    60 1   
    50    26    27 1   
    51    26    61 1   
    52    26    62 1   
    53    27    28 1   
    54    27    63 1   
    55    27    64 1   
    56    28    29 1   
    57    28    65 1   
    58    28    66 1   
    59    29    30 1   
    60    29    67 1   
    61    30    31 1   
    62    30    68 1   
    63    30    69 1   
    64    31    32 1   
    65    31    70 1   
    66    32    33 1   
    67    32    71 1   
    68    33    34 2   
    69    33    35 1   
    70    35    36 ar  
    71    35    40 ar  
    72    36    37 ar  
    73    36    72 1   
    74    37    38 ar  
    75    37    73 1   
    76    38    39 ar  
    77    39    40 ar  
    78    39    74 1   
    79    40    75 1   
@<TRIPOS>SUBSTRUCTURE
     1 R94         1 TEMP              0 ****  ****    0 ROOT
