@<TRIPOS>MOLECULE
R95
   52    55     1     0     0
SMALL
abcg2


@<TRIPOS>ATOM
      1 N1         -17.6920     9.8760    29.3480 n1         1 R95      -0.446000
      2 N3         -20.2240     4.7690    26.9350 ns         1 R95      -0.165000
      3 C4         -21.9320     4.9390    28.6520 c6         1 R95      -0.097400
      4 C5         -20.4610     5.0330    28.2430 c          1 R95       0.609100
      5 C6         -18.9370     4.8510    26.3390 ca         1 R95      -0.086000
      6 C7         -18.3040     3.7000    25.9430 ca         1 R95       0.313900
      7 C8         -16.4840     4.8280    25.1400 ca         1 R95       0.363900
      8 C10        -16.3540     7.2980    25.2470 ca         1 R95      -0.090000
      9 C13        -18.8880     7.3510    26.4590 ca         1 R95      -0.097000
     10 C15        -22.0740     4.3470    30.0350 ca         1 R95      -0.046300
     11 C17        -21.9810     2.4180    31.4680 ca         1 R95       0.128000
     12 C20        -22.3880     5.1430    31.1360 ca         1 R95      -0.067300
     13 C21        -22.6440     6.6230    31.0000 c6         1 R95       0.263100
     14 CL         -21.7200     0.6970    31.6710 cl         1 R95      -0.203000
     15 C16        -21.8690     2.9780    30.2070 ca         1 R95      -0.091000
     16 C18        -22.2960     3.1950    32.5760 ca         1 R95      -0.091000
     17 C19        -22.4970     4.5550    32.3970 ca         1 R95      -0.099000
     18 N2         -22.1300     7.1170    29.7230 n3         1 R95      -0.791500
     19 S          -21.8440     8.7140    29.5780 s6         1 R95       1.354200
     20 O          -21.3200     8.9140    28.2480 o          1 R95      -0.567500
     21 O1         -22.9650     9.5250    29.9870 o          1 R95      -0.567500
     22 N          -20.6980     8.9150    30.7340 n3         1 R95      -0.786500
     23 C1         -19.4110     8.2750    30.5090 c3         1 R95       0.268900
     24 C2         -18.4450     9.1590    29.8400 c1         1 R95       0.274900
     25 C          -20.7100    10.1060    31.5880 c3         1 R95       0.205100
     26 C3         -22.5700     6.3320    28.5700 c6         1 R95       0.230800
     27 O2         -19.5780     5.3670    29.0240 o          1 R95      -0.578100
     28 C14        -18.3130     6.1060    26.1200 ca         1 R95      -0.005000
     29 C12        -18.2100     8.5140    26.1940 ca         1 R95      -0.078000
     30 C11        -16.9340     8.4920    25.5900 ca         1 R95      -0.101000
     31 C9         -17.0320     6.0820    25.5000 ca         1 R95      -0.094000
     32 N4         -17.0880     3.6790    25.3410 nb         1 R95      -0.659000
     33 H1         -20.9770     4.4020    26.3720 hn         1 R95       0.156000
     34 H2         -22.4540     4.2990    27.9390 hc         1 R95       0.066700
     35 H3         -18.7820     2.7410    26.1080 h4         1 R95       0.019100
     36 H4         -15.5080     4.8010    24.6640 h4         1 R95       0.021100
     37 H5         -15.3780     7.2660    24.7780 ha         1 R95       0.117000
     38 H6         -19.8590     7.3900    26.9290 ha         1 R95       0.135000
     39 H7         -22.1490     7.1580    31.8080 h1         1 R95       0.065700
     40 H8         -23.7200     6.8230    31.0780 h1         1 R95       0.065700
     41 H9         -21.6240     2.3560    29.3560 ha         1 R95       0.129000
     42 H10        -22.3760     2.7470    33.5570 ha         1 R95       0.134000
     43 H11        -22.7390     5.1720    33.2540 ha         1 R95       0.120000
     44 H12        -19.5360     7.3650    29.9200 h1         1 R95       0.105700
     45 H13        -18.9890     7.9850    31.4740 h1         1 R95       0.105700
     46 H14        -20.1390     9.8690    32.4860 h1         1 R95       0.055367
     47 H15        -20.2600    10.9710    31.0940 h1         1 R95       0.055367
     48 H16        -21.7310    10.3400    31.8690 h1         1 R95       0.055367
     49 H17        -22.2830     6.8370    27.6540 h1         1 R95       0.068700
     50 H18        -23.6600     6.2300    28.5830 h1         1 R95       0.068700
     51 H19        -18.6550     9.4630    26.4600 ha         1 R95       0.131000
     52 H20        -16.4180     9.4240    25.3960 ha         1 R95       0.120000
@<TRIPOS>BOND
     1     1    24 3   
     2     2     4 1   
     3     2     5 1   
     4     2    33 1   
     5     3     4 1   
     6     3    10 1   
     7     3    26 1   
     8     3    34 1   
     9     4    27 2   
    10     5     6 ar  
    11     5    28 ar  
    12     6    32 ar  
    13     6    35 1   
    14     7    31 ar  
    15     7    32 ar  
    16     7    36 1   
    17     8    30 ar  
    18     8    31 ar  
    19     8    37 1   
    20     9    28 ar  
    21     9    29 ar  
    22     9    38 1   
    23    10    12 ar  
    24    10    15 ar  
    25    11    14 1   
    26    11    15 ar  
    27    11    16 ar  
    28    12    13 1   
    29    12    17 ar  
    30    13    18 1   
    31    13    39 1   
    32    13    40 1   
    33    15    41 1   
    34    16    17 ar  
    35    16    42 1   
    36    17    43 1   
    37    18    19 1   
    38    18    26 1   
    39    19    20 2   
    40    19    21 2   
    41    19    22 1   
    42    22    23 1   
    43    22    25 1   
    44    23    24 1   
    45    23    44 1   
    46    23    45 1   
    47    25    46 1   
    48    25    47 1   
    49    25    48 1   
    50    26    49 1   
    51    26    50 1   
    52    28    31 ar  
    53    29    30 ar  
    54    29    51 1   
    55    30    52 1   
@<TRIPOS>SUBSTRUCTURE
     1 R95         1 TEMP              0 ****  ****    0 ROOT
