@<TRIPOS>MOLECULE
R95
   52    55     1     0     0
SMALL
No Charge or Current Charge


@<TRIPOS>ATOM
      1 N1         -17.7830     9.5390    28.5790 n1         1 R95      -0.446000
      2 N3         -20.1110     5.3800    27.6550 ns         1 R95      -0.165000
      3 C4         -22.3340     4.6680    28.5750 c6         1 R95      -0.097400
      4 C5         -21.0010     4.3360    27.8640 c          1 R95       0.609100
      5 C6         -18.7860     5.3590    27.1380 ca         1 R95      -0.086000
      6 C7         -17.9280     4.2630    27.3920 ca         1 R95       0.313900
      7 C8         -16.1730     5.2420    26.2430 ca         1 R95       0.363900
      8 C10        -16.4000     7.4310    25.1730 ca         1 R95      -0.090000
      9 C13        -19.0700     7.5650    26.0510 ca         1 R95      -0.097000
     10 C15        -22.2900     4.0400    29.9770 ca         1 R95      -0.046300
     11 C17        -22.3310     2.0600    31.4040 ca         1 R95       0.128000
     12 C20        -22.1230     4.8540    31.1190 ca         1 R95      -0.067300
     13 C21        -22.0570     6.3780    30.9950 c6         1 R95       0.263100
     14 Cl         -22.4610     0.3150    31.5800 cl         1 R95      -0.203000
     15 C16        -22.3970     2.6420    30.1290 ca         1 R95      -0.091000
     16 C18        -22.1600     2.8670    32.5390 ca         1 R95      -0.091000
     17 C19        -22.0600     4.2620    32.3960 ca         1 R95      -0.099000
     18 N2         -21.8020     6.8770    29.6190 n3         1 R95      -0.791500
     19 S          -21.8670     8.5790    29.5000 s6         1 R95       1.354200
     20 O          -21.3780     8.9840    28.1840 o          1 R95      -0.567500
     21 O1         -23.1690     8.9950    30.0200 o          1 R95      -0.567500
     22 N          -20.6590     8.9640    30.6440 n3         1 R95      -0.786500
     23 C1         -19.3050     8.3690    30.4010 c3         1 R95       0.268900
     24 C2         -18.4670     9.0120    29.3640 c1         1 R95       0.274900
     25 C          -20.6330    10.3880    31.0410 c3         1 R95       0.205100
     26 C3         -22.6660     6.1820    28.6410 c6         1 R95       0.230800
     27 O2         -20.7720     3.2000    27.4590 o          1 R95      -0.578100
     28 C14        -18.2820     6.4420    26.3830 ca         1 R95      -0.005000
     29 C12        -18.5220     8.6150    25.2930 ca         1 R95      -0.078000
     30 C11        -17.1880     8.5500    24.8570 ca         1 R95      -0.101000
     31 C9         -16.9460     6.3760    25.9300 ca         1 R95      -0.094000
     32 N4         -16.6480     4.1980    26.9610 nb         1 R95      -0.659000
     33 H1         -20.4270     6.2820    27.9920 hn         1 R95       0.156000
     34 H2         -23.1200     4.1490    28.0110 hc         1 R95       0.066700
     35 H3         -18.2630     3.4160    27.9880 h4         1 R95       0.019100
     36 H4         -15.1390     5.1630    25.9080 h4         1 R95       0.021100
     37 H5         -15.3690     7.3830    24.8260 ha         1 R95       0.117000
     38 H6         -20.1060     7.6340    26.3660 ha         1 R95       0.135000
     39 H7         -21.2830     6.7350    31.6890 h1         1 R95       0.065700
     40 H8         -23.0130     6.7720    31.3710 h1         1 R95       0.065700
     41 H9         -22.5280     2.0040    29.2590 ha         1 R95       0.129000
     42 H10        -22.1110     2.4140    33.5250 ha         1 R95       0.134000
     43 H11        -21.9390     4.8840    33.2810 ha         1 R95       0.120000
     44 H12        -19.3760     7.3040    30.1480 h1         1 R95       0.105700
     45 H13        -18.7250     8.4100    31.3310 h1         1 R95       0.105700
     46 H14        -19.9010    10.5560    31.8410 h1         1 R95       0.055367
     47 H15        -20.3680    11.0330    30.1930 h1         1 R95       0.055367
     48 H16        -21.6130    10.7080    31.4180 h1         1 R95       0.055367
     49 H17        -22.5580     6.6110    27.6340 h1         1 R95       0.068700
     50 H18        -23.7240     6.3040    28.9190 h1         1 R95       0.068700
     51 H19        -19.1330     9.4800    25.0440 ha         1 R95       0.131000
     52 H20        -16.7670     9.3640    24.2710 ha         1 R95       0.120000
@<TRIPOS>BOND
     1     1    24 3   
     2     2     4 1   
     3     2     5 1   
     4     2    33 1   
     5     3     4 1   
     6     3    10 1   
     7     3    26 1   
     8     3    34 1   
     9     4    27 2   
    10     5     6 ar  
    11     5    28 ar  
    12     6    32 ar  
    13     6    35 1   
    14     7    31 ar  
    15     7    32 ar  
    16     7    36 1   
    17     8    30 ar  
    18     8    31 ar  
    19     8    37 1   
    20     9    28 ar  
    21     9    29 ar  
    22     9    38 1   
    23    10    12 ar  
    24    10    15 ar  
    25    11    14 1   
    26    11    15 ar  
    27    11    16 ar  
    28    12    13 1   
    29    12    17 ar  
    30    13    18 1   
    31    13    39 1   
    32    13    40 1   
    33    15    41 1   
    34    16    17 ar  
    35    16    42 1   
    36    17    43 1   
    37    18    19 1   
    38    18    26 1   
    39    19    20 2   
    40    19    21 2   
    41    19    22 1   
    42    22    23 1   
    43    22    25 1   
    44    23    24 1   
    45    23    44 1   
    46    23    45 1   
    47    25    46 1   
    48    25    47 1   
    49    25    48 1   
    50    26    49 1   
    51    26    50 1   
    52    28    31 ar  
    53    29    30 ar  
    54    29    51 1   
    55    30    52 1   
@<TRIPOS>SUBSTRUCTURE
     1 R95         1 TEMP              0 ****  ****    0 ROOT
