@<TRIPOS>MOLECULE
R96
   81    85     1     0     0
SMALL
abcg2


@<TRIPOS>ATOM
      1 O22         -3.2590     1.8720    -1.2030 o          1 R96      -0.612100
      2 C21         -3.5740     1.8230    -0.0230 c          1 R96       0.612700
      3 C14         -2.6300     2.3180     1.0300 ca         1 R96      -0.119600
      4 C13         -1.7430     3.3380     0.7080 ca         1 R96      -0.129500
      5 C12         -0.8430     3.7670     1.6700 ca         1 R96       0.329400
      6 N11         -0.7640     3.2380     2.8860 nb         1 R96      -0.651000
      7 C16         -1.5990     2.2520     3.1830 ca         1 R96       0.329400
      8 C15         -2.5500     1.7610     2.3000 ca         1 R96      -0.129500
      9 N23         -4.7470     1.3440     0.4190 ns         1 R96      -0.488900
     10 C31         -5.7040     0.6820    -0.4350 c3         1 R96       0.089700
     11 C32         -7.1080     1.0810     0.0270 c3         1 R96       0.165800
     12 N33         -8.1340     0.1740    -0.4320 n7         1 R96      -0.884400
     13 C34         -8.1480    -0.1090    -1.8590 c3         1 R96       0.169800
     14 C35         -7.4100    -1.4080    -2.1550 c3         1 R96      -0.068400
     15 C36         -5.9110    -1.3990    -1.8760 c3         1 R96      -0.082400
     16 C37         -5.4890    -0.8610    -0.5060 c3         1 R96       0.105700
     17 N41         -4.0980    -1.1990    -0.2940 ns         1 R96      -0.495900
     18 C42         -3.5740    -1.4420     0.9160 c          1 R96       0.609700
     19 O43         -4.2430    -1.5000     1.9410 o          1 R96      -0.617100
     20 C51         -2.0920    -1.6470     0.9630 ca         1 R96      -0.137600
     21 C52         -1.5710    -2.4710     1.9590 ca         1 R96      -0.091000
     22 C53         -0.2070    -2.6620     2.0650 ca         1 R96      -0.068000
     23 C56         -1.2220    -0.9940     0.0950 ca         1 R96      -0.091000
     24 C55          0.1450    -1.1840     0.2020 ca         1 R96      -0.068000
     25 C54          0.6650    -2.0250     1.1810 ca         1 R96      -0.134600
     26 C61          2.1320    -2.1980     1.3540 c          1 R96       0.608300
     27 O62          2.5900    -2.5640     2.4170 o          1 R96      -0.515100
     28 C71          3.0390    -1.8470     0.2250 ca         1 R96      -0.178600
     29 C72          2.8770    -2.3920    -1.0530 ca         1 R96       0.142100
     30 O92          1.8860    -3.2870    -1.2420 oh         1 R96      -0.528100
     31 C73          3.7570    -2.0130    -2.0560 ca         1 R96      -0.190000
     32 C74          4.7920    -1.1260    -1.7960 ca         1 R96      -0.105000
     33 C76          4.0870    -0.9720     0.4750 ca         1 R96      -0.060000
     34 C75          4.9820    -0.5830    -0.5240 ca         1 R96       0.243000
     35 N91          5.9980     0.3330    -0.2180 nh         1 R96      -0.779400
     36 C92          6.9380    -0.0880     0.8150 c6         1 R96       0.194800
     37 C93          7.7040     1.1020     1.3630 c6         1 R96      -0.077400
     38 C94          8.3850     1.8690     0.2370 c6         1 R96      -0.067400
     39 C95          7.4100     2.2420    -0.8860 c6         1 R96      -0.048000
     40 C97          6.4090     3.2980    -0.4120 c3         1 R96      -0.082100
     41 C98          8.1880     2.7910    -2.0790 c3         1 R96      -0.082100
     42 C96          6.6640     0.9790    -1.3300 c6         1 R96       0.197800
     43 H13         -1.7510     3.7980    -0.2700 ha         1 R96       0.140000
     44 H12         -0.1530     4.5710     1.4440 h4         1 R96       0.024100
     45 H16         -1.5120     1.8220     4.1740 h4         1 R96       0.024100
     46 H15         -3.1800     0.9380     2.6150 ha         1 R96       0.140000
     47 H23         -4.9330     1.3550     1.4100 hn         1 R96       0.326500
     48 H31         -5.5370     1.0730    -1.4410 h1         1 R96       0.075700
     49 H321        -7.2690     2.1230    -0.2890 h1         1 R96       0.036200
     50 H322        -7.1360     1.0770     1.1220 h1         1 R96       0.036200
     51 H33         -9.0320     0.5240    -0.1330 hn         1 R96       0.423000
     52 H341        -7.7430     0.7170    -2.4620 h1         1 R96       0.032200
     53 H342        -9.1860    -0.2300    -2.1730 h1         1 R96       0.032200
     54 H351        -7.5570    -1.6770    -3.2040 hc         1 R96       0.047700
     55 H352        -7.8810    -2.1970    -1.5620 hc         1 R96       0.047700
     56 H361        -5.3970    -0.8120    -2.6470 hc         1 R96       0.044700
     57 H362        -5.5440    -2.4240    -1.9740 hc         1 R96       0.044700
     58 H37         -6.0700    -1.3430     0.2820 h1         1 R96       0.098700
     59 H41         -3.4950    -1.2210    -1.1020 hn         1 R96       0.323500
     60 H52         -2.2380    -2.9700     2.6490 ha         1 R96       0.131000
     61 H53          0.1830    -3.3120     2.8360 ha         1 R96       0.130000
     62 H56         -1.5920    -0.3080    -0.6560 ha         1 R96       0.131000
     63 H55          0.8050    -0.6470    -0.4660 ha         1 R96       0.130000
     64 H92          1.8720    -3.5820    -2.1590 ho         1 R96       0.465000
     65 H73          3.6540    -2.4280    -3.0520 ha         1 R96       0.114000
     66 H74          5.4610    -0.8730    -2.6090 ha         1 R96       0.116000
     67 H76          4.1850    -0.5500     1.4680 ha         1 R96       0.134000
     68 H921         7.6480    -0.8250     0.4050 h1         1 R96       0.037700
     69 H922         6.3960    -0.5860     1.6190 h1         1 R96       0.037700
     70 H931         8.4470     0.7480     2.0810 hc         1 R96       0.049200
     71 H932         7.0190     1.7520     1.9140 hc         1 R96       0.049200
     72 H941         9.1860     1.2470    -0.1810 hc         1 R96       0.039700
     73 H942         8.8670     2.7720     0.6240 hc         1 R96       0.039700
     74 H971         5.7360     3.5830    -1.2240 hc         1 R96       0.035867
     75 H972         5.7950     2.9420     0.4140 hc         1 R96       0.035867
     76 H973         6.9290     4.2000    -0.0810 hc         1 R96       0.035867
     77 H981         8.7430     3.6890    -1.7980 hc         1 R96       0.035867
     78 H982         8.9070     2.0620    -2.4580 hc         1 R96       0.035867
     79 H983         7.5210     3.0590    -2.9020 hc         1 R96       0.035867
     80 H961         5.9160     1.2550    -2.0780 h1         1 R96       0.033700
     81 H962         7.3750     0.2970    -1.8280 h1         1 R96       0.033700
@<TRIPOS>BOND
     1     1     2 2   
     2     2     3 1   
     3     2     9 1   
     4     3     4 ar  
     5     3     8 ar  
     6     4     5 ar  
     7     4    43 1   
     8     5     6 ar  
     9     5    44 1   
    10     6     7 ar  
    11     7     8 ar  
    12     7    45 1   
    13     8    46 1   
    14     9    10 1   
    15     9    47 1   
    16    10    11 1   
    17    10    16 1   
    18    10    48 1   
    19    11    12 1   
    20    11    49 1   
    21    11    50 1   
    22    12    13 1   
    23    12    51 1   
    24    13    14 1   
    25    13    52 1   
    26    13    53 1   
    27    14    15 1   
    28    14    54 1   
    29    14    55 1   
    30    15    16 1   
    31    15    56 1   
    32    15    57 1   
    33    16    17 1   
    34    16    58 1   
    35    17    18 1   
    36    17    59 1   
    37    18    19 2   
    38    18    20 1   
    39    20    21 ar  
    40    20    23 ar  
    41    21    22 ar  
    42    21    60 1   
    43    22    25 ar  
    44    22    61 1   
    45    23    24 ar  
    46    23    62 1   
    47    24    25 ar  
    48    24    63 1   
    49    25    26 1   
    50    26    27 2   
    51    26    28 1   
    52    28    29 ar  
    53    28    33 ar  
    54    29    30 1   
    55    29    31 ar  
    56    30    64 1   
    57    31    32 ar  
    58    31    65 1   
    59    32    34 ar  
    60    32    66 1   
    61    33    34 ar  
    62    33    67 1   
    63    34    35 1   
    64    35    36 1   
    65    35    42 1   
    66    36    37 1   
    67    36    68 1   
    68    36    69 1   
    69    37    38 1   
    70    37    70 1   
    71    37    71 1   
    72    38    39 1   
    73    38    72 1   
    74    38    73 1   
    75    39    40 1   
    76    39    41 1   
    77    39    42 1   
    78    40    74 1   
    79    40    75 1   
    80    40    76 1   
    81    41    77 1   
    82    41    78 1   
    83    41    79 1   
    84    42    80 1   
    85    42    81 1   
@<TRIPOS>SUBSTRUCTURE
     1 R96         1 TEMP              0 ****  ****    0 ROOT
