@<TRIPOS>MOLECULE
R96
   81    85     1     0     0
SMALL
No Charge or Current Charge


@<TRIPOS>ATOM
      1 O22         -1.7750     1.7670    -1.1410 o          1 R96      -0.612100
      2 C21         -2.0980     1.6520     0.0330 c          1 R96       0.612700
      3 C14         -1.0710     1.4900     1.1340 ca         1 R96      -0.119600
      4 C13          0.3070     1.5580     0.8340 ca         1 R96      -0.129500
      5 C12          1.2560     1.3640     1.8520 ca         1 R96       0.329400
      6 N11          0.9200     1.1040     3.1350 nb         1 R96      -0.651000
      7 C16         -0.3960     1.0300     3.4330 ca         1 R96       0.329400
      8 C15         -1.4140     1.2150     2.4810 ca         1 R96      -0.129500
      9 N23         -3.4230     1.6030     0.4140 ns         1 R96      -0.488900
     10 C31         -4.5490     1.3740    -0.5150 c3         1 R96       0.089700
     11 C32         -5.7620     2.2620    -0.1120 c3         1 R96       0.165800
     12 N33         -7.0540     1.9060    -0.7500 n7         1 R96      -0.884400
     13 C34         -7.0450     1.5780    -2.1890 c3         1 R96       0.169800
     14 C35         -6.8520     0.0580    -2.3860 c3         1 R96      -0.068400
     15 C36         -5.4380    -0.4890    -2.0810 c3         1 R96      -0.082400
     16 C37         -4.8790    -0.1500    -0.6760 c3         1 R96       0.105700
     17 N41         -3.6990    -0.9930    -0.4120 ns         1 R96      -0.495900
     18 C42         -3.3550    -1.4830     0.8300 c          1 R96       0.609700
     19 O43         -4.1460    -1.4580     1.7640 o          1 R96      -0.617100
     20 C51         -1.9340    -1.9840     0.9940 ca         1 R96      -0.137600
     21 C52         -1.5510    -2.6030     2.2040 ca         1 R96      -0.091000
     22 C53         -0.2330    -3.0430     2.4050 ca         1 R96      -0.068000
     23 C56         -0.9520    -1.8120    -0.0110 ca         1 R96      -0.091000
     24 C55          0.3700    -2.2440     0.1950 ca         1 R96      -0.068000
     25 C54          0.7460    -2.8650     1.4060 ca         1 R96      -0.134600
     26 C61          2.1630    -3.3460     1.6340 c          1 R96       0.608300
     27 O62          2.4500    -4.0730     2.5800 o          1 R96      -0.515100
     28 C71          3.2250    -2.8720     0.6880 ca         1 R96      -0.178600
     29 C72          3.8290    -3.7560    -0.2220 ca         1 R96       0.142100
     30 O92          3.4550    -5.0650    -0.2680 oh         1 R96      -0.528100
     31 C73          4.8090    -3.2850    -1.1100 ca         1 R96      -0.190000
     32 C74          5.1880    -1.9300    -1.0910 ca         1 R96      -0.105000
     33 C76          3.6120    -1.5150     0.7030 ca         1 R96      -0.060000
     34 C75          4.5920    -1.0300    -0.1830 ca         1 R96       0.243000
     35 N91          4.9650     0.3350    -0.1430 nh         1 R96      -0.779400
     36 C92          5.5860     0.8830     1.0950 c6         1 R96       0.194800
     37 C93          5.3620     2.4100     1.2220 c6         1 R96      -0.077400
     38 C94          5.8140     3.1560    -0.0570 c6         1 R96      -0.067400
     39 C95          5.1480     2.5690    -1.3390 c6         1 R96      -0.048000
     40 C97          3.6150     2.8700    -1.3750 c3         1 R96      -0.082100
     41 C98          5.7680     3.2420    -2.6000 c3         1 R96      -0.082100
     42 C96          5.4070     1.0300    -1.3880 c6         1 R96       0.197800
     43 H13          0.6500     1.7510    -0.1780 ha         1 R96       0.140000
     44 H12          2.3200     1.4140     1.6320 h4         1 R96       0.024100
     45 H16         -0.6450     0.8120     4.4710 h4         1 R96       0.024100
     46 H15         -2.4460     1.1250     2.8080 ha         1 R96       0.140000
     47 H23         -3.6060     1.5160     1.4040 hn         1 R96       0.326500
     48 H31         -4.2260     1.7320    -1.5020 h1         1 R96       0.075700
     49 H321        -5.5040     3.3030    -0.3530 h1         1 R96       0.036200
     50 H322        -5.8840     2.2120     0.9780 h1         1 R96       0.036200
     51 H33         -7.6960     2.6970    -0.6040 hn         1 R96       0.423000
     52 H341        -6.2790     2.1440    -2.7370 h1         1 R96       0.032200
     53 H342        -8.0190     1.8420    -2.6230 h1         1 R96       0.032200
     54 H351        -7.0950    -0.1860    -3.4270 hc         1 R96       0.047700
     55 H352        -7.5860    -0.4770    -1.7700 hc         1 R96       0.047700
     56 H361        -4.7390    -0.1260    -2.8460 hc         1 R96       0.044700
     57 H362        -5.4730    -1.5800    -2.1920 hc         1 R96       0.044700
     58 H37         -5.6490    -0.4110     0.0630 h1         1 R96       0.098700
     59 H41         -2.9990    -1.0660    -1.1370 hn         1 R96       0.323500
     60 H52         -2.2790    -2.7450     3.0000 ha         1 R96       0.131000
     61 H53          0.0270    -3.5180     3.3490 ha         1 R96       0.130000
     62 H56         -1.1870    -1.3270    -0.9550 ha         1 R96       0.131000
     63 H55          1.0950    -2.0960    -0.6030 ha         1 R96       0.130000
     64 H92          3.9880    -5.5170    -0.9570 ho         1 R96       0.465000
     65 H73          5.2810    -3.9610    -1.8200 ha         1 R96       0.114000
     66 H74          5.9550    -1.5860    -1.7780 ha         1 R96       0.116000
     67 H76          3.1460    -0.8310     1.4060 ha         1 R96       0.134000
     68 H921         6.6670     0.6780     1.0850 h1         1 R96       0.037700
     69 H922         5.1710     0.3920     1.9870 h1         1 R96       0.037700
     70 H931         5.9190     2.7890     2.0890 hc         1 R96       0.049200
     71 H932         4.3050     2.6160     1.4270 hc         1 R96       0.049200
     72 H941         6.9070     3.0820    -0.1420 hc         1 R96       0.039700
     73 H942         5.5850     4.2270     0.0370 hc         1 R96       0.039700
     74 H971         3.1590     2.5040    -2.3030 hc         1 R96       0.035867
     75 H972         3.0820     2.3900    -0.5470 hc         1 R96       0.035867
     76 H973         3.4160     3.9470    -1.3130 hc         1 R96       0.035867
     77 H981         5.6060     4.3270    -2.5970 hc         1 R96       0.035867
     78 H982         6.8500     3.0710    -2.6530 hc         1 R96       0.035867
     79 H983         5.3290     2.8450    -3.5240 hc         1 R96       0.035867
     80 H961         4.8790     0.6130    -2.2590 h1         1 R96       0.033700
     81 H962         6.4810     0.8500    -1.5430 h1         1 R96       0.033700
@<TRIPOS>BOND
     1     1     2 2   
     2     2     3 1   
     3     2     9 1   
     4     3     4 ar  
     5     3     8 ar  
     6     4     5 ar  
     7     4    43 1   
     8     5     6 ar  
     9     5    44 1   
    10     6     7 ar  
    11     7     8 ar  
    12     7    45 1   
    13     8    46 1   
    14     9    10 1   
    15     9    47 1   
    16    10    11 1   
    17    10    16 1   
    18    10    48 1   
    19    11    12 1   
    20    11    49 1   
    21    11    50 1   
    22    12    13 1   
    23    12    51 1   
    24    13    14 1   
    25    13    52 1   
    26    13    53 1   
    27    14    15 1   
    28    14    54 1   
    29    14    55 1   
    30    15    16 1   
    31    15    56 1   
    32    15    57 1   
    33    16    17 1   
    34    16    58 1   
    35    17    18 1   
    36    17    59 1   
    37    18    19 2   
    38    18    20 1   
    39    20    21 ar  
    40    20    23 ar  
    41    21    22 ar  
    42    21    60 1   
    43    22    25 ar  
    44    22    61 1   
    45    23    24 ar  
    46    23    62 1   
    47    24    25 ar  
    48    24    63 1   
    49    25    26 1   
    50    26    27 2   
    51    26    28 1   
    52    28    29 ar  
    53    28    33 ar  
    54    29    30 1   
    55    29    31 ar  
    56    30    64 1   
    57    31    32 ar  
    58    31    65 1   
    59    32    34 ar  
    60    32    66 1   
    61    33    34 ar  
    62    33    67 1   
    63    34    35 1   
    64    35    36 1   
    65    35    42 1   
    66    36    37 1   
    67    36    68 1   
    68    36    69 1   
    69    37    38 1   
    70    37    70 1   
    71    37    71 1   
    72    38    39 1   
    73    38    72 1   
    74    38    73 1   
    75    39    40 1   
    76    39    41 1   
    77    39    42 1   
    78    40    74 1   
    79    40    75 1   
    80    40    76 1   
    81    41    77 1   
    82    41    78 1   
    83    41    79 1   
    84    42    80 1   
    85    42    81 1   
@<TRIPOS>SUBSTRUCTURE
     1 R96         1 TEMP              0 ****  ****    0 ROOT
