@<TRIPOS>MOLECULE
R97
   23    24     1     0     0
SMALL
No Charge or Current Charge


@<TRIPOS>ATOM
      1 C4          19.8350    -2.7960    57.8070 c3         1 R97      -0.165000
      2 C5          20.2930    -2.1540    59.0970 ca         1 R97       0.344300
      3 C6          19.6710    -0.9890    59.5850 ca         1 R97      -0.148000
      4 N1          21.3210    -2.7570    59.7370 nb         1 R97      -0.673000
      5 C7          20.1270    -0.4180    60.7840 ca         1 R97      -0.073000
      6 C8          21.1940    -1.0440    61.4480 ca         1 R97      -0.163000
      7 C9          21.7600    -2.2050    60.8940 ca         1 R97       0.338900
      8 C1          20.0520    -0.6150    54.9130 cc         1 R97       0.293300
      9 N           19.4100    -1.2250    55.9590 nc         1 R97      -0.649000
     10 C3          20.2590    -2.0100    56.6070 cd         1 R97       0.432700
     11 S           21.9060    -2.0640    55.9900 ss         1 R97      -0.019400
     12 C2          21.3790    -0.9290    54.7610 cd         1 R97      -0.274000
     13 H1          18.7450    -2.8990    57.8200 hc         1 R97       0.084200
     14 H2          20.2270    -3.8160    57.7250 hc         1 R97       0.084200
     15 H3          18.8490    -0.5370    59.0360 ha         1 R97       0.137000
     16 H4          19.6670     0.4830    61.1860 ha         1 R97       0.120000
     17 H5          21.5830    -0.6410    62.3790 ha         1 R97       0.124000
     18 H6          22.5880    -2.7100    61.3890 h4         1 R97       0.019100
     19 H7          18.4290    -0.1940    53.5690 hc         1 R97       0.049367
     20 H8          18.8740     1.1590    54.6290 hc         1 R97       0.049367
     21 H9          19.9020     0.7390    53.2480 hc         1 R97       0.049367
     22 H10         22.0680    -0.5640    54.0090 h4         1 R97       0.160000
     23 C           19.2720     0.3230    54.0420 c3         1 R97      -0.120400
@<TRIPOS>BOND
     1     1     2 1   
     2     1    10 1   
     3     1    13 1   
     4     1    14 1   
     5     2     3 ar  
     6     2     4 ar  
     7     3     5 ar  
     8     3    15 1   
     9     4     7 ar  
    10     5     6 ar  
    11     5    16 1   
    12     6     7 ar  
    13     6    17 1   
    14     7    18 1   
    15     8     9 1   
    16     8    12 2   
    17     8    23 1   
    18     9    10 2   
    19    10    11 1   
    20    11    12 1   
    21    12    22 1   
    22    19    23 1   
    23    20    23 1   
    24    21    23 1   
@<TRIPOS>SUBSTRUCTURE
     1 R97         1 TEMP              0 ****  ****    0 ROOT
