@<TRIPOS>MOLECULE
R97
   23    24     1     0     0
SMALL
abcg2


@<TRIPOS>ATOM
      1 C4          20.0650    -2.8850    57.7730 c3         1 R97      -0.165000
      2 C5          20.4090    -2.2080    59.0800 ca         1 R97       0.344300
      3 C6          19.9600    -0.9200    59.3590 ca         1 R97      -0.148000
      4 N1          21.1350    -2.9090    59.9420 nb         1 R97      -0.673000
      5 C7          20.2830    -0.3490    60.5780 ca         1 R97      -0.073000
      6 C8          21.0440    -1.0800    61.4800 ca         1 R97      -0.163000
      7 C9          21.4410    -2.3550    61.1110 ca         1 R97       0.338900
      8 C1          19.9860    -0.5880    54.9380 cc         1 R97       0.293300
      9 N           19.4440    -1.3250    55.9590 nc         1 R97      -0.649000
     10 C3          20.3370    -2.0180    56.5870 cd         1 R97       0.432700
     11 S           21.9380    -1.8190    55.9720 ss         1 R97      -0.019400
     12 C2          21.3320    -0.7330    54.7940 cd         1 R97      -0.274000
     13 H1          19.0040    -3.1450    57.7610 hc         1 R97       0.084200
     14 H2          20.6280    -3.8160    57.7080 hc         1 R97       0.084200
     15 H3          19.3640    -0.3790    58.6360 ha         1 R97       0.137000
     16 H4          19.9460     0.6500    60.8210 ha         1 R97       0.120000
     17 H5          21.3240    -0.6760    62.4430 ha         1 R97       0.124000
     18 H6          22.0350    -2.9590    61.7880 h4         1 R97       0.019100
     19 H7          18.0670     0.0190    54.2210 hc         1 R97       0.049367
     20 H8          19.2060     1.3450    54.4260 hc         1 R97       0.049367
     21 H9          19.3750     0.2540    53.0580 hc         1 R97       0.049367
     22 H10         21.9770    -0.2690    54.0650 h4         1 R97       0.160000
     23 C           19.1130     0.3030    54.1140 c3         1 R97      -0.120400
@<TRIPOS>BOND
     1     1     2 1   
     2     1    10 1   
     3     1    13 1   
     4     1    14 1   
     5     2     3 ar  
     6     2     4 ar  
     7     3     5 ar  
     8     3    15 1   
     9     4     7 ar  
    10     5     6 ar  
    11     5    16 1   
    12     6     7 ar  
    13     6    17 1   
    14     7    18 1   
    15     8     9 1   
    16     8    12 2   
    17     8    23 1   
    18     9    10 2   
    19    10    11 1   
    20    11    12 1   
    21    12    22 1   
    22    19    23 1   
    23    20    23 1   
    24    21    23 1   
@<TRIPOS>SUBSTRUCTURE
     1 R97         1 TEMP              0 ****  ****    0 ROOT
