@<TRIPOS>MOLECULE
R98
   37    40     1     0     0
SMALL
abcg2


@<TRIPOS>ATOM
      1 C18        -50.5850   -29.0120     5.0320 ca         1 R98       0.187000
      2 C16        -48.3850   -29.4560     5.7270 ca         1 R98       0.008800
      3 C17        -49.7350   -29.3960     6.0500 ca         1 R98      -0.174000
      4 C14        -46.1530   -29.6220     5.8430 ca         1 R98       0.192500
      5 C12        -43.9660   -29.4620     5.4870 ca         1 R98       0.178900
      6 C10        -45.3340   -29.2090     3.6420 ca         1 R98       0.429900
      7 C20        -50.1570   -28.6810     3.7510 ca         1 R98      -0.174000
      8 C01        -44.2320   -28.6670     1.5420 c3         1 R98       0.204100
      9 C03        -46.3690   -29.8700     1.5230 c3         1 R98       0.164500
     10 C04        -45.7320   -31.1470     1.0160 ca         1 R98       0.302300
     11 C05        -45.6220   -31.4090    -0.3460 ca         1 R98      -0.151000
     12 C06        -45.0290   -32.5960    -0.7580 ca         1 R98      -0.072000
     13 C07        -44.5590   -33.4780     0.2060 ca         1 R98      -0.159000
     14 C08        -44.7080   -33.1310     1.5440 ca         1 R98       0.341900
     15 C21        -48.8040   -28.7590     3.4450 ca         1 R98      -0.045000
     16 C22        -47.8930   -29.1720     4.4210 cp         1 R98      -0.061000
     17 C23        -46.4530   -29.3230     4.4950 cp         1 R98      -0.212000
     18 F19        -51.9150   -28.9380     5.3030 f          1 R98      -0.183000
     19 N02        -45.4280   -29.0490     2.2850 nh         1 R98      -0.760300
     20 N09        -45.2810   -31.9960     1.9470 nb         1 R98      -0.657000
     21 N11        -44.0980   -29.2220     4.1840 nb         1 R98      -0.272000
     22 N13        -44.9290   -29.7180     6.3690 nb         1 R98      -0.230000
     23 N15        -47.3160   -29.7440     6.5510 na         1 R98      -0.332300
     24 H171       -50.1060   -29.6170     7.0420 ha         1 R98       0.138000
     25 H121       -42.9500   -29.4670     5.8690 h5         1 R98       0.048100
     26 H201       -50.8800   -28.3640     3.0130 ha         1 R98       0.133000
     27 H013       -43.7430   -27.8290     2.0330 h1         1 R98       0.044033
     28 H012       -43.5130   -29.4860     1.4540 h1         1 R98       0.044033
     29 H011       -44.5430   -28.3640     0.5430 h1         1 R98       0.044033
     30 H031       -46.7510   -29.2880     0.6830 h1         1 R98       0.071700
     31 H032       -47.2060   -30.1420     2.1570 h1         1 R98       0.071700
     32 H051       -45.9920   -30.6920    -1.0660 ha         1 R98       0.122000
     33 H061       -44.9300   -32.8240    -1.8120 ha         1 R98       0.121000
     34 H071       -44.0880   -34.4130    -0.0660 ha         1 R98       0.126000
     35 H081       -44.3540   -33.7950     2.3250 h4         1 R98       0.023100
     36 H211       -48.4750   -28.4760     2.4560 ha         1 R98       0.122000
     37 H151       -47.3670   -29.8960     7.5470 hn         1 R98       0.368000
@<TRIPOS>BOND
     1     1     3 ar  
     2     1     7 ar  
     3     1    18 1   
     4     2     3 ar  
     5     2    16 ar  
     6     2    23 1   
     7     3    24 1   
     8     4    17 ar  
     9     4    22 ar  
    10     4    23 1   
    11     5    21 ar  
    12     5    22 ar  
    13     5    25 1   
    14     6    17 ar  
    15     6    19 1   
    16     6    21 ar  
    17     7    15 ar  
    18     7    26 1   
    19     8    19 1   
    20     8    27 1   
    21     8    28 1   
    22     8    29 1   
    23     9    10 1   
    24     9    19 1   
    25     9    30 1   
    26     9    31 1   
    27    10    11 ar  
    28    10    20 ar  
    29    11    12 ar  
    30    11    32 1   
    31    12    13 ar  
    32    12    33 1   
    33    13    14 ar  
    34    13    34 1   
    35    14    20 ar  
    36    14    35 1   
    37    15    16 ar  
    38    15    36 1   
    39    16    17 1   
    40    23    37 1   
@<TRIPOS>SUBSTRUCTURE
     1 R98         1 TEMP              0 ****  ****    0 ROOT
