@<TRIPOS>MOLECULE
R98
   37    40     1     0     0
SMALL
No Charge or Current Charge


@<TRIPOS>ATOM
      1 C18        -49.9540   -30.2180     5.0600 ca         1 R98       0.187000
      2 C16        -47.5860   -30.1600     5.3950 ca         1 R98       0.008800
      3 C17        -48.8480   -30.5070     5.8830 ca         1 R98      -0.174000
      4 C14        -45.2980   -29.7640     5.1680 ca         1 R98       0.192500
      5 C12        -43.3020   -29.0940     4.3140 ca         1 R98       0.178900
      6 C10        -45.1580   -28.7910     2.9670 ca         1 R98       0.429900
      7 C20        -49.7820   -29.5890     3.8040 ca         1 R98      -0.174000
      8 C01        -45.2400   -27.1140     1.1120 c3         1 R98       0.204100
      9 C03        -46.1510   -29.4410     0.7360 c3         1 R98       0.164500
     10 C04        -46.1160   -30.9170     1.1780 ca         1 R98       0.302300
     11 C05        -44.8890   -31.5550     1.4570 ca         1 R98      -0.151000
     12 C06        -44.8850   -32.8960     1.8720 ca         1 R98      -0.072000
     13 C07        -46.1190   -33.5560     1.9840 ca         1 R98      -0.159000
     14 C08        -47.2980   -32.8590     1.6700 ca         1 R98       0.341900
     15 C21        -48.4910   -29.2450     3.3440 ca         1 R98      -0.045000
     16 C22        -47.3840   -29.5590     4.1580 cp         1 R98      -0.061000
     17 C23        -45.9460   -29.3350     4.0060 cp         1 R98      -0.212000
     18 F19        -51.1980   -30.5330     5.4820 f          1 R98      -0.183000
     19 N02        -45.6450   -28.4100     1.6980 nh         1 R98      -0.760300
     20 N09        -47.3050   -31.5680     1.2670 nb         1 R98      -0.657000
     21 N11        -43.8230   -28.6640     3.1400 nb         1 R98      -0.272000
     22 N13        -43.9730   -29.6540     5.3460 nb         1 R98      -0.230000
     23 N15        -46.3200   -30.2760     5.9790 na         1 R98      -0.332300
     24 H171       -48.9760   -30.9740     6.8550 ha         1 R98       0.138000
     25 H121       -42.2260   -28.9880     4.4360 h5         1 R98       0.048100
     26 H201       -50.6520   -29.3630     3.1930 ha         1 R98       0.133000
     27 H013       -45.1480   -26.3490     1.8950 h1         1 R98       0.044033
     28 H012       -44.2750   -27.2070     0.5960 h1         1 R98       0.044033
     29 H011       -45.9910   -26.7660     0.3900 h1         1 R98       0.044033
     30 H031       -45.5640   -29.3810    -0.1910 h1         1 R98       0.071700
     31 H032       -47.1840   -29.1920     0.4570 h1         1 R98       0.071700
     32 H051       -43.9550   -31.0080     1.3590 ha         1 R98       0.122000
     33 H061       -43.9530   -33.4080     2.1020 ha         1 R98       0.121000
     34 H071       -46.1680   -34.5930     2.3020 ha         1 R98       0.126000
     35 H081       -48.2680   -33.3510     1.7410 h4         1 R98       0.023100
     36 H211       -48.3590   -28.7440     2.3900 ha         1 R98       0.122000
     37 H151       -46.1520   -30.6780     6.8930 hn         1 R98       0.368000
@<TRIPOS>BOND
     1     1     3 ar  
     2     1     7 ar  
     3     1    18 1   
     4     2     3 ar  
     5     2    16 ar  
     6     2    23 1   
     7     3    24 1   
     8     4    17 ar  
     9     4    22 ar  
    10     4    23 1   
    11     5    21 ar  
    12     5    22 ar  
    13     5    25 1   
    14     6    17 ar  
    15     6    19 1   
    16     6    21 ar  
    17     7    15 ar  
    18     7    26 1   
    19     8    19 1   
    20     8    27 1   
    21     8    28 1   
    22     8    29 1   
    23     9    10 1   
    24     9    19 1   
    25     9    30 1   
    26     9    31 1   
    27    10    11 ar  
    28    10    20 ar  
    29    11    12 ar  
    30    11    32 1   
    31    12    13 ar  
    32    12    33 1   
    33    13    14 ar  
    34    13    34 1   
    35    14    20 ar  
    36    14    35 1   
    37    15    16 ar  
    38    15    36 1   
    39    16    17 1   
    40    23    37 1   
@<TRIPOS>SUBSTRUCTURE
     1 R98         1 TEMP              0 ****  ****    0 ROOT
