@<TRIPOS>MOLECULE
R99
   53    53     1     0     0
SMALL
No Charge or Current Charge


@<TRIPOS>ATOM
      1 C4          -1.3420    -1.0450     1.3740 c          1 R99       0.563100
      2 O9          -1.2440    -0.3980     2.4110 o          1 R99      -0.646100
      3 C3          -2.4500    -2.1290     1.1610 c3         1 R99       0.122300
      4 O8          -2.6440    -2.9210     2.3540 oh         1 R99      -0.631000
      5 C2          -3.7980    -1.4890     0.7440 c3         1 R99      -0.243400
      6 C1          -4.7080    -2.5420     0.1020 c          1 R99       0.728000
      7 O6          -5.5360    -3.1040     0.8030 o          1 R99      -0.728500
      8 O7          -4.5480    -2.7830    -1.0850 o          1 R99      -0.728500
      9 N5          -0.4430    -0.8960     0.3350 ns         1 R99      -0.498900
     10 C10          0.6860     0.0640     0.3100 c3         1 R99       0.032700
     11 C11          1.9300    -0.5880    -0.3650 c          1 R99       0.586100
     12 O26          1.8730    -1.6290    -1.0100 o          1 R99      -0.606100
     13 C12          0.2880     1.3860    -0.4010 c3         1 R99      -0.083400
     14 C13         -0.8690     2.1610     0.2700 c3         1 R99      -0.036100
     15 C14         -1.1370     3.4930    -0.4190 ca         1 R99      -0.070300
     16 C15         -2.0050     3.5570    -1.5260 ca         1 R99      -0.105000
     17 C19         -0.5120     4.6690     0.0390 ca         1 R99      -0.105000
     18 C16         -2.2490     4.7850    -2.1660 ca         1 R99      -0.113500
     19 C18         -0.7560     5.8970    -0.6010 ca         1 R99      -0.113500
     20 C17         -1.6250     5.9550    -1.7040 ca         1 R99      -0.120000
     21 C25          7.5020    -0.9220    -0.4630 c3         1 R99      -0.088600
     22 C23          6.3960    -2.0000    -0.3620 c3         1 R99      -0.057700
     23 C24          6.8760    -3.1990     0.4880 c3         1 R99      -0.088600
     24 C22          5.0540    -1.4380     0.1800 c3         1 R99      -0.092400
     25 C21          4.4170    -0.3410    -0.7020 c3         1 R99       0.105000
     26 N20          3.1170     0.0930    -0.1860 ns         1 R99      -0.507900
     27 H31         -2.1030    -2.7720     0.3390 h1         1 R99       0.098700
     28 HO8         -2.6190    -2.2910     3.1090 ho         1 R99       0.442000
     29 H21         -4.2540    -1.0580     1.6440 hc         1 R99       0.027200
     30 H22         -3.5310    -0.7370    -0.0100 hc         1 R99       0.027200
     31 HN5         -0.5610    -1.5070    -0.4670 hn         1 R99       0.337500
     32 H101         0.9810     0.2940     1.3430 h1         1 R99       0.081700
     33 H121         1.1630     2.0470    -0.4410 hc         1 R99       0.049700
     34 H122         0.0160     1.1680    -1.4420 hc         1 R99       0.049700
     35 H131        -1.7800     1.5510     0.2540 hc         1 R99       0.062200
     36 H132        -0.6290     2.3250     1.3280 hc         1 R99       0.062200
     37 H151        -2.4910     2.6550    -1.8920 ha         1 R99       0.116000
     38 H191         0.1650     4.6330     0.8900 ha         1 R99       0.116000
     39 H161        -2.9210     4.8280    -3.0200 ha         1 R99       0.106500
     40 H181        -0.2700     6.8020    -0.2430 ha         1 R99       0.106500
     41 H171        -1.8130     6.9050    -2.1990 ha         1 R99       0.103000
     42 H251         7.6870    -0.4600     0.5140 hc         1 R99       0.032200
     43 H252         8.4420    -1.3650    -0.8150 hc         1 R99       0.032200
     44 H253         7.2250    -0.1340    -1.1720 hc         1 R99       0.032200
     45 H231         6.2130    -2.3780    -1.3760 hc         1 R99       0.049700
     46 H241         7.0810    -2.8890     1.5200 hc         1 R99       0.032200
     47 H242         6.1160    -3.9890     0.5100 hc         1 R99       0.032200
     48 H243         7.7950    -3.6290     0.0690 hc         1 R99       0.032200
     49 H221         4.3410    -2.2660     0.2750 hc         1 R99       0.042700
     50 H222         5.2080    -1.0400     1.1900 hc         1 R99       0.042700
     51 H211         5.0770     0.5340    -0.7440 h1         1 R99       0.049700
     52 H212         4.2880    -0.7170    -1.7260 h1         1 R99       0.049700
     53 H20          3.0780     0.9460     0.3600 hn         1 R99       0.315500
@<TRIPOS>BOND
     1     1     2 2   
     2     1     3 1   
     3     1     9 1   
     4     3     4 1   
     5     3     5 1   
     6     3    27 1   
     7     4    28 1   
     8     5     6 1   
     9     5    29 1   
    10     5    30 1   
    11     6     7 1   
    12     6     8 1   
    13     9    10 1   
    14     9    31 1   
    15    10    11 1   
    16    10    13 1   
    17    10    32 1   
    18    11    12 2   
    19    11    26 1   
    20    13    14 1   
    21    13    33 1   
    22    13    34 1   
    23    14    15 1   
    24    14    35 1   
    25    14    36 1   
    26    15    16 ar  
    27    15    17 ar  
    28    16    18 ar  
    29    16    37 1   
    30    17    19 ar  
    31    17    38 1   
    32    18    20 ar  
    33    18    39 1   
    34    19    20 ar  
    35    19    40 1   
    36    20    41 1   
    37    21    22 1   
    38    21    42 1   
    39    21    43 1   
    40    21    44 1   
    41    22    23 1   
    42    22    24 1   
    43    22    45 1   
    44    23    46 1   
    45    23    47 1   
    46    23    48 1   
    47    24    25 1   
    48    24    49 1   
    49    24    50 1   
    50    25    26 1   
    51    25    51 1   
    52    25    52 1   
    53    26    53 1   
@<TRIPOS>SUBSTRUCTURE
     1 R99         1 TEMP              0 ****  ****    0 ROOT
