@<TRIPOS>MOLECULE
R99
   53    53     1     0     0
SMALL
abcg2


@<TRIPOS>ATOM
      1 C4          -1.3010    -1.5060     0.9930 c          1 R99       0.563100
      2 O9          -0.9830    -1.4080     2.1700 o          1 R99      -0.646100
      3 C3          -2.5930    -2.2050     0.5880 c3         1 R99       0.122300
      4 O8          -2.8720    -3.2590     1.4700 oh         1 R99      -0.631000
      5 C2          -3.7190    -1.1770     0.5410 c3         1 R99      -0.243400
      6 C1          -5.0550    -1.7640     0.0420 c          1 R99       0.728000
      7 O6          -6.0900    -1.3180     0.5720 o          1 R99      -0.728500
      8 O7          -4.9880    -2.6050    -0.8760 o          1 R99      -0.728500
      9 N5          -0.6020    -0.9740    -0.0220 ns         1 R99      -0.498900
     10 C10          0.5650    -0.1400     0.1330 c3         1 R99       0.032700
     11 C11          1.7340    -0.7690    -0.6190 c          1 R99       0.586100
     12 O26          1.5890    -1.2210    -1.7460 o          1 R99      -0.606100
     13 C12          0.3100     1.2710    -0.4060 c3         1 R99      -0.083400
     14 C13         -0.7480     2.0210     0.4020 c3         1 R99      -0.036100
     15 C14         -1.0390     3.3720    -0.1880 ca         1 R99      -0.070300
     16 C15         -2.0740     3.5420    -1.1040 ca         1 R99      -0.105000
     17 C19         -0.2540     4.4760     0.1380 ca         1 R99      -0.105000
     18 C16         -2.3190     4.7810    -1.6820 ca         1 R99      -0.113500
     19 C18         -0.4940     5.7170    -0.4370 ca         1 R99      -0.113500
     20 C17         -1.5280     5.8730    -1.3510 ca         1 R99      -0.120000
     21 C25          7.1490    -1.1020    -1.2120 c3         1 R99      -0.088600
     22 C23          6.5610    -1.8410    -0.0130 c3         1 R99      -0.057700
     23 C24          7.5750    -1.8940     1.1240 c3         1 R99      -0.088600
     24 C22          5.2530    -1.2180     0.4760 c3         1 R99      -0.092400
     25 C21          4.1320    -1.2670    -0.5510 c3         1 R99       0.105000
     26 N20          2.9040    -0.7510     0.0250 ns         1 R99      -0.507900
     27 H31         -2.4860    -2.6500    -0.4050 h1         1 R99       0.098700
     28 HO8         -2.8170    -2.9140     2.3690 ho         1 R99       0.442000
     29 H21         -3.8440    -0.7180     1.5260 hc         1 R99       0.027200
     30 H22         -3.4370    -0.3650    -0.1410 hc         1 R99       0.027200
     31 HN5         -0.9090    -1.1540    -0.9660 hn         1 R99       0.337500
     32 H101         0.7870    -0.0820     1.2000 h1         1 R99       0.081700
     33 H121         1.2480     1.8340    -0.3870 hc         1 R99       0.049700
     34 H122         0.0060     1.2060    -1.4540 hc         1 R99       0.049700
     35 H131        -1.6680     1.4310     0.4380 hc         1 R99       0.062200
     36 H132        -0.4030     2.1290     1.4340 hc         1 R99       0.062200
     37 H151        -2.7010     2.6970    -1.3670 ha         1 R99       0.116000
     38 H191         0.5520     4.3640     0.8540 ha         1 R99       0.116000
     39 H161        -3.1320     4.8930    -2.3890 ha         1 R99       0.106500
     40 H181         0.1260     6.5630    -0.1690 ha         1 R99       0.106500
     41 H171        -1.7180     6.8400    -1.8000 ha         1 R99       0.103000
     42 H251         7.3710    -0.0630    -0.9550 hc         1 R99       0.032200
     43 H252         8.0810    -1.5690    -1.5330 hc         1 R99       0.032200
     44 H253         6.4760    -1.0940    -2.0700 hc         1 R99       0.032200
     45 H231         6.3450    -2.8720    -0.3210 hc         1 R99       0.049700
     46 H241         7.8330    -0.8890     1.4660 hc         1 R99       0.032200
     47 H242         7.1900    -2.4480     1.9820 hc         1 R99       0.032200
     48 H243         8.4990    -2.3800     0.8040 hc         1 R99       0.032200
     49 H221         4.9260    -1.7480     1.3770 hc         1 R99       0.042700
     50 H222         5.4350    -0.1780     0.7710 hc         1 R99       0.042700
     51 H211         4.3940    -0.6870    -1.4390 h1         1 R99       0.049700
     52 H212         3.9740    -2.2990    -0.8780 h1         1 R99       0.049700
     53 H20          2.9380    -0.3870     0.9630 hn         1 R99       0.315500
@<TRIPOS>BOND
     1     1     2 2   
     2     1     3 1   
     3     1     9 1   
     4     3     4 1   
     5     3     5 1   
     6     3    27 1   
     7     4    28 1   
     8     5     6 1   
     9     5    29 1   
    10     5    30 1   
    11     6     7 1   
    12     6     8 1   
    13     9    10 1   
    14     9    31 1   
    15    10    11 1   
    16    10    13 1   
    17    10    32 1   
    18    11    12 2   
    19    11    26 1   
    20    13    14 1   
    21    13    33 1   
    22    13    34 1   
    23    14    15 1   
    24    14    35 1   
    25    14    36 1   
    26    15    16 ar  
    27    15    17 ar  
    28    16    18 ar  
    29    16    37 1   
    30    17    19 ar  
    31    17    38 1   
    32    18    20 ar  
    33    18    39 1   
    34    19    20 ar  
    35    19    40 1   
    36    20    41 1   
    37    21    22 1   
    38    21    42 1   
    39    21    43 1   
    40    21    44 1   
    41    22    23 1   
    42    22    24 1   
    43    22    45 1   
    44    23    46 1   
    45    23    47 1   
    46    23    48 1   
    47    24    25 1   
    48    24    49 1   
    49    24    50 1   
    50    25    26 1   
    51    25    51 1   
    52    25    52 1   
    53    26    53 1   
@<TRIPOS>SUBSTRUCTURE
     1 R99         1 TEMP              0 ****  ****    0 ROOT
