@<TRIPOS>MOLECULE
R9B
   62    66     1     0     0
SMALL
abcg2


@<TRIPOS>ATOM
      1 C27          1.4140     0.7330     0.3140 c          1 R9B       0.630700
      2 O28          1.0370     1.0240     1.4400 o          1 R9B      -0.600100
      3 C15          2.6840    -0.0210     0.0980 ca         1 R9B      -0.199600
      4 C16          3.4180     0.0420    -1.0950 ca         1 R9B      -0.022000
      5 C17          4.5900    -0.6590    -1.2450 ca         1 R9B      -0.188000
      6 C20          5.0660    -1.4550    -0.1980 ca         1 R9B       0.138600
      7 C19          4.3530    -1.5150     1.0090 ca         1 R9B      -0.159800
      8 C18          3.1710    -0.7850     1.1420 ca         1 R9B       0.031000
      9 C24          4.8950    -2.3410     2.0610 cc         1 R9B       0.246900
     10 C23          6.0490    -3.0290     1.8730 cd         1 R9B      -0.437200
     11 C22          6.7770    -2.9740     0.6310 c          1 R9B       0.588200
     12 O26          7.8200    -3.5790     0.4110 o          1 R9B      -0.551000
     13 N21          6.2180    -2.1720    -0.3390 ns         1 R9B      -0.380100
     14 O25          4.1910    -2.3660     3.1880 oh         1 R9B      -0.516100
     15 N29          0.7210     1.0460    -0.7980 ns         1 R9B      -0.493900
     16 C30         -0.4390     1.8940    -0.7990 c3         1 R9B       0.033700
     17 C31         -1.5510     1.2260    -1.5990 c          1 R9B       0.591100
     18 O32         -1.3030     0.5580    -2.5920 o          1 R9B      -0.607100
     19 C33         -0.1230     3.2710    -1.4160 c3         1 R9B      -0.043100
     20 C34          0.9850     3.9540    -0.6690 ca         1 R9B      -0.085300
     21 C35          2.3030     3.8590    -1.1060 ca         1 R9B      -0.099500
     22 C39          0.7210     4.6530     0.5070 ca         1 R9B      -0.099500
     23 C36          3.3360     4.4430    -0.3840 ca         1 R9B      -0.105000
     24 C38          1.7480     5.2410     1.2300 ca         1 R9B      -0.105000
     25 C37          3.0620     5.1350     0.7880 ca         1 R9B      -0.102000
     26 C1          -5.0260    -2.9580     1.0070 ca         1 R9B      -0.163000
     27 C2          -3.8930    -3.6000     0.5630 ca         1 R9B      -0.047000
     28 C3          -3.0700    -2.9720    -0.3720 ca         1 R9B       0.080000
     29 C4          -3.3660    -1.7180    -0.8520 ca         1 R9B      -0.042000
     30 CL5         -1.6510    -3.7910    -0.9350 cl         1 R9B      -0.190000
     31 C6          -4.5100    -1.0460    -0.4010 ca         1 R9B      -0.118800
     32 C7          -5.3440    -1.6830     0.5300 ca         1 R9B       0.100600
     33 N8          -6.4780    -1.0500     0.9660 ns         1 R9B      -0.372100
     34 C9          -6.9070     0.1820     0.5540 c          1 R9B       0.563200
     35 C10         -6.0250     0.8380    -0.3970 cc         1 R9B      -0.286200
     36 C11         -4.8870     0.2740    -0.8520 cd         1 R9B      -0.006400
     37 C13         -4.0040     1.0400    -1.8010 c3         1 R9B       0.131200
     38 N14         -2.7880     1.4620    -1.1400 ns         1 R9B      -0.499900
     39 H16          3.0940     0.6680    -1.9160 ha         1 R9B       0.116000
     40 H18          2.6190    -0.8230     2.0710 ha         1 R9B       0.154000
     41 H17          5.1490    -0.5970    -2.1700 ha         1 R9B       0.125000
     42 H21          6.7050    -2.1260    -1.2240 hn         1 R9B       0.330500
     43 H23          6.4620    -3.6500     2.6580 ha         1 R9B       0.210000
     44 H25          4.6070    -2.9400     3.8440 ho         1 R9B       0.481000
     45 H29          1.0280     0.7020    -1.6940 hn         1 R9B       0.331500
     46 H30         -0.7530     2.0300     0.2360 h1         1 R9B       0.095700
     47 H331         0.1540     3.1340    -2.4640 hc         1 R9B       0.058200
     48 H332        -1.0300     3.8800    -1.4010 hc         1 R9B       0.058200
     49 H35          2.5280     3.3320    -2.0260 ha         1 R9B       0.106500
     50 H39         -0.3000     4.7390     0.8610 ha         1 R9B       0.106500
     51 H36          4.3550     4.3590    -0.7390 ha         1 R9B       0.113500
     52 H38          1.5240     5.7840     2.1400 ha         1 R9B       0.113500
     53 H37          3.8640     5.5930     1.3510 ha         1 R9B       0.114000
     54 H1          -5.6720    -3.4440     1.7270 ha         1 R9B       0.125000
     55 H2          -3.6500    -4.5860     0.9330 ha         1 R9B       0.134000
     56 H4          -2.7180    -1.2640    -1.5890 ha         1 R9B       0.150000
     57 H8          -7.0620    -1.5310     1.6380 hn         1 R9B       0.330500
     58 H10         -6.3200     1.8260    -0.7270 ha         1 R9B       0.208000
     59 H131        -3.7400     0.4330    -2.6660 h1         1 R9B       0.072200
     60 H132        -4.5450     1.9120    -2.1740 h1         1 R9B       0.072200
     61 H14         -2.8940     2.0390    -0.3200 hn         1 R9B       0.322500
     62 O12         -7.9440     0.6720     0.9800 o          1 R9B      -0.543000
@<TRIPOS>BOND
     1     1     2 2   
     2     1     3 1   
     3     1    15 1   
     4     3     4 ar  
     5     3     8 ar  
     6     4     5 ar  
     7     4    39 1   
     8     5     6 ar  
     9     5    41 1   
    10     6     7 ar  
    11     6    13 1   
    12     7     8 ar  
    13     7     9 1   
    14     8    40 1   
    15     9    10 2   
    16     9    14 1   
    17    10    11 1   
    18    10    43 1   
    19    11    12 2   
    20    11    13 1   
    21    13    42 1   
    22    14    44 1   
    23    15    16 1   
    24    15    45 1   
    25    16    17 1   
    26    16    19 1   
    27    16    46 1   
    28    17    18 2   
    29    17    38 1   
    30    19    20 1   
    31    19    47 1   
    32    19    48 1   
    33    20    21 ar  
    34    20    22 ar  
    35    21    23 ar  
    36    21    49 1   
    37    22    24 ar  
    38    22    50 1   
    39    23    25 ar  
    40    23    51 1   
    41    24    25 ar  
    42    24    52 1   
    43    25    53 1   
    44    26    27 ar  
    45    26    32 ar  
    46    26    54 1   
    47    27    28 ar  
    48    27    55 1   
    49    28    29 ar  
    50    28    30 1   
    51    29    31 ar  
    52    29    56 1   
    53    31    32 ar  
    54    31    36 1   
    55    32    33 1   
    56    33    34 1   
    57    33    57 1   
    58    34    35 1   
    59    34    62 2   
    60    35    36 2   
    61    35    58 1   
    62    36    37 1   
    63    37    38 1   
    64    37    59 1   
    65    37    60 1   
    66    38    61 1   
@<TRIPOS>SUBSTRUCTURE
     1 R9B         1 TEMP              0 ****  ****    0 ROOT
