@<TRIPOS>MOLECULE
R9B
   62    66     1     0     0
SMALL
No Charge or Current Charge


@<TRIPOS>ATOM
      1 C27          1.9820     0.0870     0.2190 c          1 R9B       0.630700
      2 O28          1.6490     0.1240     1.3950 o          1 R9B      -0.600100
      3 C15          3.3770    -0.3140    -0.2050 ca         1 R9B      -0.199600
      4 C16          3.7710    -0.3510    -1.5640 ca         1 R9B      -0.022000
      5 C17          5.0800    -0.7240    -1.9100 ca         1 R9B      -0.188000
      6 C20          6.0030    -1.0600    -0.9130 ca         1 R9B       0.138600
      7 C19          5.6400    -1.0300     0.4420 ca         1 R9B      -0.159800
      8 C18          4.3230    -0.6550     0.7880 ca         1 R9B       0.031000
      9 C24          6.6410    -1.3890     1.4540 cc         1 R9B       0.246900
     10 C23          7.9010    -1.7420     1.0360 cd         1 R9B      -0.437200
     11 C22          8.3040    -1.7810    -0.3770 c          1 R9B       0.588200
     12 O26          9.4210    -2.0940    -0.7520 o          1 R9B      -0.551000
     13 N21          7.3100    -1.4330    -1.2450 ns         1 R9B      -0.380100
     14 O25          6.2830    -1.3570     2.7470 oh         1 R9B      -0.516100
     15 N29          1.0960     0.4000    -0.7890 ns         1 R9B      -0.493900
     16 C30         -0.2780     0.9200    -0.5880 c3         1 R9B       0.033700
     17 C31         -1.2560     0.2870    -1.6180 c          1 R9B       0.591100
     18 O32         -0.8820    -0.3400    -2.6030 o          1 R9B      -0.607100
     19 C33         -0.3020     2.4700    -0.6700 c3         1 R9B      -0.043100
     20 C34          0.6690     3.1430     0.2950 ca         1 R9B      -0.085300
     21 C35          1.9360     3.5700    -0.1500 ca         1 R9B      -0.099500
     22 C39          0.3090     3.3360     1.6430 ca         1 R9B      -0.099500
     23 C36          2.8340     4.1790     0.7440 ca         1 R9B      -0.105000
     24 C38          1.2060     3.9460     2.5370 ca         1 R9B      -0.105000
     25 C37          2.4690     4.3680     2.0880 ca         1 R9B      -0.102000
     26 C1          -7.1210    -1.3560     1.2930 ca         1 R9B      -0.163000
     27 C2          -6.2870    -2.3720     1.7880 ca         1 R9B      -0.047000
     28 C3          -5.0260    -2.5830     1.2070 ca         1 R9B       0.080000
     29 C4          -4.5960    -1.7840     0.1330 ca         1 R9B      -0.042000
     30 Cl5         -3.9780    -3.8530     1.8270 cl         1 R9B      -0.190000
     31 C6          -5.4290    -0.7600    -0.3720 ca         1 R9B      -0.118800
     32 C7          -6.6910    -0.5570     0.2210 ca         1 R9B       0.100600
     33 N8          -7.5130     0.4620    -0.2810 ns         1 R9B      -0.372100
     34 C9          -7.2240     1.3160    -1.3100 c          1 R9B       0.563200
     35 C10         -5.9030     1.0940    -1.9190 cc         1 R9B      -0.286200
     36 C11         -5.0220     0.1110    -1.5000 cd         1 R9B      -0.006400
     37 C13         -3.6820    -0.0410    -2.1830 c3         1 R9B       0.131200
     38 N14         -2.5940     0.4720    -1.3490 ns         1 R9B      -0.499900
     39 H16          3.0820    -0.0930    -2.3650 ha         1 R9B       0.116000
     40 H18          4.0320    -0.6260     1.8370 ha         1 R9B       0.154000
     41 H17          5.3730    -0.7490    -2.9570 ha         1 R9B       0.125000
     42 H21          7.5520    -1.4480    -2.2270 hn         1 R9B       0.330500
     43 H23          8.6860    -2.0180     1.7280 ha         1 R9B       0.210000
     44 H25          7.0740    -1.6250     3.2590 ho         1 R9B       0.481000
     45 H29          1.4250     0.2870    -1.7380 hn         1 R9B       0.331500
     46 H30         -0.6330     0.6160     0.4050 h1         1 R9B       0.095700
     47 H331        -0.0740     2.7730    -1.6990 hc         1 R9B       0.058200
     48 H332        -1.3200     2.8280    -0.4720 hc         1 R9B       0.058200
     49 H35          2.2290     3.4240    -1.1870 ha         1 R9B       0.106500
     50 H39         -0.6650     3.0080     2.0010 ha         1 R9B       0.106500
     51 H36          3.8120     4.5030     0.3960 ha         1 R9B       0.113500
     52 H38          0.9230     4.0900     3.5770 ha         1 R9B       0.113500
     53 H37          3.1640     4.8390     2.7800 ha         1 R9B       0.114000
     54 H1          -8.0980    -1.1910     1.7430 ha         1 R9B       0.125000
     55 H2          -6.6140    -2.9930     2.6180 ha         1 R9B       0.134000
     56 H4          -3.6140    -1.9720    -0.2920 ha         1 R9B       0.150000
     57 H8          -8.4140     0.5890     0.1600 hn         1 R9B       0.330500
     58 H10         -5.6630     1.7670    -2.7340 ha         1 R9B       0.208000
     59 H131        -3.5030    -1.1000    -2.4130 h1         1 R9B       0.072200
     60 H132        -3.6840     0.5070    -3.1350 h1         1 R9B       0.072200
     61 H14         -2.8330     0.9990    -0.5170 hn         1 R9B       0.322500
     62 O12         -8.0060     2.1790    -1.6750 o          1 R9B      -0.543000
@<TRIPOS>BOND
     1     1     2 2   
     2     1     3 1   
     3     1    15 1   
     4     3     4 ar  
     5     3     8 ar  
     6     4     5 ar  
     7     4    39 1   
     8     5     6 ar  
     9     5    41 1   
    10     6     7 ar  
    11     6    13 1   
    12     7     8 ar  
    13     7     9 1   
    14     8    40 1   
    15     9    10 2   
    16     9    14 1   
    17    10    11 1   
    18    10    43 1   
    19    11    12 2   
    20    11    13 1   
    21    13    42 1   
    22    14    44 1   
    23    15    16 1   
    24    15    45 1   
    25    16    17 1   
    26    16    19 1   
    27    16    46 1   
    28    17    18 2   
    29    17    38 1   
    30    19    20 1   
    31    19    47 1   
    32    19    48 1   
    33    20    21 ar  
    34    20    22 ar  
    35    21    23 ar  
    36    21    49 1   
    37    22    24 ar  
    38    22    50 1   
    39    23    25 ar  
    40    23    51 1   
    41    24    25 ar  
    42    24    52 1   
    43    25    53 1   
    44    26    27 ar  
    45    26    32 ar  
    46    26    54 1   
    47    27    28 ar  
    48    27    55 1   
    49    28    29 ar  
    50    28    30 1   
    51    29    31 ar  
    52    29    56 1   
    53    31    32 ar  
    54    31    36 1   
    55    32    33 1   
    56    33    34 1   
    57    33    57 1   
    58    34    35 1   
    59    34    62 2   
    60    35    36 2   
    61    35    58 1   
    62    36    37 1   
    63    37    38 1   
    64    37    59 1   
    65    37    60 1   
    66    38    61 1   
@<TRIPOS>SUBSTRUCTURE
     1 R9B         1 TEMP              0 ****  ****    0 ROOT
