@<TRIPOS>MOLECULE
R9C
   47    50     1     0     0
SMALL
No Charge or Current Charge


@<TRIPOS>ATOM
      1 C1           6.1750     7.6410    18.5250 cc         1 R9C      -0.000300
      2 N2           4.9890     7.6130    19.2890 na         1 R9C      -0.097700
      3 C3           7.2070     7.7270    19.4550 cd         1 R9C      -0.172400
      4 C4           6.3340     7.6030    17.0190 c6         1 R9C       0.002500
      5 C5           5.2940     7.6720    20.6430 ca         1 R9C      -0.054200
      6 C6           3.5970     7.5180    18.8050 c3         1 R9C       0.122900
      7 C7           6.6520     7.7440    20.7880 ca         1 R9C      -0.073800
      8 C8           8.6600     7.8280    19.0370 c6         1 R9C       0.008800
      9 C9           7.7600     8.1190    16.6550 c6         1 R9C      -0.058400
     10 C10          6.0170     6.1670    16.4820 c3         1 R9C      -0.204400
     11 C11          4.4440     7.6580    21.7610 ca         1 R9C      -0.118000
     12 C12          2.9200     6.1590    19.0110 ca         1 R9C      -0.096300
     13 C13          7.2700     7.8150    22.0420 ca         1 R9C      -0.072000
     14 C14          8.8610     7.4760    17.5400 c6         1 R9C      -0.078400
     15 C15          6.0290     6.0980    14.9480 c          1 R9C       0.708000
     16 C16          5.0340     7.7270    23.0420 ca         1 R9C      -0.115000
     17 C17          1.5130     6.0850    18.9650 ca         1 R9C      -0.093000
     18 C18          3.6610     4.9770    19.2370 ca         1 R9C      -0.093000
     19 C19          6.4430     7.8080    23.1890 ca         1 R9C      -0.122300
     20 O20          7.0530     5.7380    14.3890 o          1 R9C      -0.738500
     21 O21          5.0180     6.4360    14.3510 o          1 R9C      -0.738500
     22 C22          0.8560     4.8560    19.1480 ca         1 R9C      -0.110500
     23 C23          3.0030     3.7490    19.4190 ca         1 R9C      -0.110500
     24 C24          7.0610     7.8780    24.5770 c3         1 R9C      -0.032800
     25 C25          1.6010     3.6870    19.3760 ca         1 R9C      -0.116000
     26 H26          5.6010     8.2780    16.5550 hc         1 R9C       0.076700
     27 H27          3.0090     8.2930    19.3120 h1         1 R9C       0.070700
     28 H28          3.5810     7.7570    17.7350 h1         1 R9C       0.070700
     29 H30          9.0170     8.8510    19.2170 hc         1 R9C       0.027700
     30 H29          9.2870     7.1720    19.6560 hc         1 R9C       0.027700
     31 H32          7.9810     7.9500    15.5930 hc         1 R9C       0.048700
     32 H31          7.7900     9.2090    16.7920 hc         1 R9C       0.048700
     33 H34          6.7640     5.4810    16.8980 hc         1 R9C       0.029700
     34 H33          5.0020     5.9420    16.8260 hc         1 R9C       0.029700
     35 H35          3.3650     7.5930    21.6510 ha         1 R9C       0.110000
     36 H36          8.3520     7.8710    22.1270 ha         1 R9C       0.104000
     37 H37          9.8520     7.8180    17.2120 hc         1 R9C       0.038200
     38 H38          8.8550     6.3860    17.4120 hc         1 R9C       0.038200
     39 H39          4.3970     7.7160    23.9230 ha         1 R9C       0.095000
     40 H40          0.9260     6.9840    18.7880 ha         1 R9C       0.119500
     41 H41          4.7480     5.0000    19.2710 ha         1 R9C       0.119500
     42 H43         -0.2300     4.8100    19.1120 ha         1 R9C       0.105500
     43 H44          3.5810     2.8440    19.5940 ha         1 R9C       0.105500
     44 H46          6.4130     8.4190    25.2760 hc         1 R9C       0.028700
     45 H45          7.2260     6.8720    24.9820 hc         1 R9C       0.028700
     46 H47          8.0290     8.3940    24.5590 hc         1 R9C       0.028700
     47 H48          1.0920     2.7360    19.5170 ha         1 R9C       0.102000
@<TRIPOS>BOND
     1     1     2 1   
     2     1     3 2   
     3     1     4 1   
     4     2     5 1   
     5     2     6 1   
     6     3     7 1   
     7     3     8 1   
     8     4     9 1   
     9     4    10 1   
    10     4    26 1   
    11     5     7 ar  
    12     5    11 ar  
    13     6    12 1   
    14     6    27 1   
    15     6    28 1   
    16     7    13 ar  
    17     8    14 1   
    18     8    29 1   
    19     8    30 1   
    20     9    14 1   
    21     9    31 1   
    22     9    32 1   
    23    10    15 1   
    24    10    33 1   
    25    10    34 1   
    26    11    16 ar  
    27    11    35 1   
    28    12    17 ar  
    29    12    18 ar  
    30    13    19 ar  
    31    13    36 1   
    32    14    37 1   
    33    14    38 1   
    34    15    20 1   
    35    15    21 1   
    36    16    19 ar  
    37    16    39 1   
    38    17    22 ar  
    39    17    40 1   
    40    18    23 ar  
    41    18    41 1   
    42    19    24 1   
    43    22    25 ar  
    44    22    42 1   
    45    23    25 ar  
    46    23    43 1   
    47    24    44 1   
    48    24    45 1   
    49    24    46 1   
    50    25    47 1   
@<TRIPOS>SUBSTRUCTURE
     1 R9C         1 TEMP              0 ****  ****    0 ROOT
