@<TRIPOS>MOLECULE
R9C
   47    50     1     0     0
SMALL
abcg2


@<TRIPOS>ATOM
      1 C1           6.1580     7.6740    18.6090 cc         1 R9C      -0.000300
      2 N2           4.9750     7.6580    19.3410 na         1 R9C      -0.097700
      3 C3           7.2280     7.7510    19.4670 cd         1 R9C      -0.172400
      4 C4           6.2370     7.6210    17.1160 c6         1 R9C       0.002500
      5 C5           5.2880     7.7120    20.6850 ca         1 R9C      -0.054200
      6 C6           3.6310     7.5360    18.8250 c3         1 R9C       0.122900
      7 C7           6.7020     7.7780    20.8020 ca         1 R9C      -0.073800
      8 C8           8.6510     7.8310    19.0070 c6         1 R9C       0.008800
      9 C9           7.6450     8.0900    16.6940 c6         1 R9C      -0.058400
     10 C10          5.9120     6.2220    16.5660 c3         1 R9C      -0.204400
     11 C11          4.4640     7.6980    21.8070 ca         1 R9C      -0.118000
     12 C12          3.0180     6.1570    18.9810 ca         1 R9C      -0.096300
     13 C13          7.2770     7.8400    22.0780 ca         1 R9C      -0.072000
     14 C14          8.7580     7.4460    17.5260 c6         1 R9C      -0.078400
     15 C15          5.7590     6.1380    15.0350 c          1 R9C       0.708000
     16 C16          5.0680     7.7590    23.0550 ca         1 R9C      -0.115000
     17 C17          1.6560     5.9920    18.7240 ca         1 R9C      -0.093000
     18 C18          3.7730     5.0490    19.3540 ca         1 R9C      -0.093000
     19 C19          6.4680     7.8300    23.2080 ca         1 R9C      -0.122300
     20 O20          6.0410     5.0290    14.5090 o          1 R9C      -0.738500
     21 O21          5.3300     7.1520    14.4280 o          1 R9C      -0.738500
     22 C22          1.0620     4.7400    18.8310 ca         1 R9C      -0.110500
     23 C23          3.1790     3.7940    19.4630 ca         1 R9C      -0.110500
     24 C24          7.0690     7.8820    24.5900 c3         1 R9C      -0.032800
     25 C25          1.8230     3.6340    19.2010 ca         1 R9C      -0.116000
     26 H26          5.5080     8.3110    16.6850 hc         1 R9C       0.076700
     27 H27          2.9940     8.2700    19.3260 h1         1 R9C       0.070700
     28 H28          3.6450     7.8110    17.7700 h1         1 R9C       0.070700
     29 H30          9.0330     8.8490    19.1510 hc         1 R9C       0.027700
     30 H29          9.2900     7.1810    19.6120 hc         1 R9C       0.027700
     31 H32          7.7870     7.8680    15.6340 hc         1 R9C       0.048700
     32 H31          7.7050     9.1780    16.8010 hc         1 R9C       0.048700
     33 H34          6.6680     5.5050    16.8890 hc         1 R9C       0.029700
     34 H33          4.9660     5.8680    16.9840 hc         1 R9C       0.029700
     35 H35          3.3870     7.6350    21.7160 ha         1 R9C       0.110000
     36 H36          8.3550     7.8930    22.1870 ha         1 R9C       0.104000
     37 H37          9.7340     7.7420    17.1340 hc         1 R9C       0.038200
     38 H38          8.6990     6.3580    17.4320 hc         1 R9C       0.038200
     39 H39          4.4440     7.7480    23.9420 ha         1 R9C       0.095000
     40 H40          1.0580     6.8500    18.4400 ha         1 R9C       0.119500
     41 H41          4.8290     5.1640    19.5600 ha         1 R9C       0.119500
     42 H43          0.0040     4.6280    18.6280 ha         1 R9C       0.105500
     43 H44          3.7800     2.9410    19.7540 ha         1 R9C       0.105500
     44 H46          6.6790     8.7290    25.1620 hc         1 R9C       0.028700
     45 H45          6.8350     6.9780    25.1600 hc         1 R9C       0.028700
     46 H47          8.1540     7.9770    24.5430 hc         1 R9C       0.028700
     47 H48          1.3620     2.6590    19.2870 ha         1 R9C       0.102000
@<TRIPOS>BOND
     1     1     2 1   
     2     1     3 2   
     3     1     4 1   
     4     2     5 1   
     5     2     6 1   
     6     3     7 1   
     7     3     8 1   
     8     4     9 1   
     9     4    10 1   
    10     4    26 1   
    11     5     7 ar  
    12     5    11 ar  
    13     6    12 1   
    14     6    27 1   
    15     6    28 1   
    16     7    13 ar  
    17     8    14 1   
    18     8    29 1   
    19     8    30 1   
    20     9    14 1   
    21     9    31 1   
    22     9    32 1   
    23    10    15 1   
    24    10    33 1   
    25    10    34 1   
    26    11    16 ar  
    27    11    35 1   
    28    12    17 ar  
    29    12    18 ar  
    30    13    19 ar  
    31    13    36 1   
    32    14    37 1   
    33    14    38 1   
    34    15    20 1   
    35    15    21 1   
    36    16    19 ar  
    37    16    39 1   
    38    17    22 ar  
    39    17    40 1   
    40    18    23 ar  
    41    18    41 1   
    42    19    24 1   
    43    22    25 ar  
    44    22    42 1   
    45    23    25 ar  
    46    23    43 1   
    47    24    44 1   
    48    24    45 1   
    49    24    46 1   
    50    25    47 1   
@<TRIPOS>SUBSTRUCTURE
     1 R9C         1 TEMP              0 ****  ****    0 ROOT
