@<TRIPOS>MOLECULE
R9E
   38    40     1     0     0
SMALL
abcg2


@<TRIPOS>ATOM
      1 N1         -16.7250     3.9810    26.1550 nb         1 R9E      -0.654000
      2 C4         -18.8830     4.9630    26.5730 ca         1 R9E      -0.084000
      3 C5         -20.7720     5.3060    28.1040 c          1 R9E       0.596100
      4 C6         -22.2250     4.9220    28.3600 c3         1 R9E      -0.107100
      5 C7         -22.4200     4.3910    29.7570 ca         1 R9E      -0.070300
      6 C8         -22.8550     5.2190    30.7900 ca         1 R9E      -0.084000
      7 C10        -22.7190     3.3890    32.3590 ca         1 R9E      -0.095000
      8 C13        -18.0130     3.9000    26.5630 ca         1 R9E       0.316900
      9 C15        -17.0780     6.3200    25.7170 ca         1 R9E      -0.101000
     10 C17        -17.3900     8.6370    25.2160 ca         1 R9E       0.154000
     11 F          -16.9250     9.8280    24.7820 f          1 R9E      -0.164000
     12 C1         -18.7580     8.5750    25.6070 ca         1 R9E       0.130100
     13 O          -19.4420     9.7270    25.4980 os         1 R9E      -0.327100
     14 C          -20.8210     9.7280    25.8860 c3         1 R9E       0.145900
     15 C16        -16.5670     7.5600    25.2610 ca         1 R9E      -0.104000
     16 C3         -18.4370     6.2350    26.1270 ca         1 R9E       0.027000
     17 C2         -19.2650     7.3770    26.0550 ca         1 R9E      -0.173000
     18 C14        -16.2830     5.1550    25.7580 ca         1 R9E       0.365900
     19 N          -20.2250     4.7580    26.9880 ns         1 R9E      -0.168000
     20 O1         -20.1610     6.0690    28.8410 o          1 R9E      -0.568100
     21 C12        -22.1340     3.0530    30.0310 ca         1 R9E      -0.098000
     22 C11        -22.2870     2.5730    31.3220 ca         1 R9E       0.126000
     23 CL         -21.9310     0.8870    31.6500 cl         1 R9E      -0.212000
     24 C9         -23.0020     4.7200    32.0790 ca         1 R9E      -0.099000
     25 H1         -22.8140     5.8310    28.2200 hc         1 R9E       0.066200
     26 H2         -22.5620     4.1910    27.6250 hc         1 R9E       0.066200
     27 H3         -23.0810     6.2570    30.5820 ha         1 R9E       0.121000
     28 H4         -22.8340     2.9910    33.3580 ha         1 R9E       0.132000
     29 H5         -18.3580     2.9270    26.8960 h4         1 R9E       0.022100
     30 H6         -21.1680    10.7450    25.7290 h1         1 R9E       0.048700
     31 H7         -21.3950     9.0370    25.2670 h1         1 R9E       0.048700
     32 H8         -20.9240     9.4570    26.9390 h1         1 R9E       0.048700
     33 H9         -15.5340     7.6500    24.9490 ha         1 R9E       0.140000
     34 H10        -20.2970     7.3030    26.3550 ha         1 R9E       0.129000
     35 H11        -15.2460     5.2170    25.4410 h4         1 R9E       0.024100
     36 H12        -20.7520     4.0430    26.5090 hn         1 R9E       0.155000
     37 H13        -21.7970     2.3930    29.2420 ha         1 R9E       0.124000
     38 H14        -23.3430     5.3690    32.8760 ha         1 R9E       0.122000
@<TRIPOS>BOND
     1     1     8 ar  
     2     1    18 ar  
     3     2     8 ar  
     4     2    16 ar  
     5     2    19 1   
     6     3     4 1   
     7     3    19 1   
     8     3    20 2   
     9     4     5 1   
    10     4    25 1   
    11     4    26 1   
    12     5     6 ar  
    13     5    21 ar  
    14     6    24 ar  
    15     6    27 1   
    16     7    22 ar  
    17     7    24 ar  
    18     7    28 1   
    19     8    29 1   
    20     9    15 ar  
    21     9    16 ar  
    22     9    18 ar  
    23    10    11 1   
    24    10    12 ar  
    25    10    15 ar  
    26    12    13 1   
    27    12    17 ar  
    28    13    14 1   
    29    14    30 1   
    30    14    31 1   
    31    14    32 1   
    32    15    33 1   
    33    16    17 ar  
    34    17    34 1   
    35    18    35 1   
    36    19    36 1   
    37    21    22 ar  
    38    21    37 1   
    39    22    23 1   
    40    24    38 1   
@<TRIPOS>SUBSTRUCTURE
     1 R9E         1 TEMP              0 ****  ****    0 ROOT
