@<TRIPOS>MOLECULE
R9E
   38    40     1     0     0
SMALL
No Charge or Current Charge


@<TRIPOS>ATOM
      1 N1         -16.7290     4.0170    26.5900 nb         1 R9E      -0.654000
      2 C4         -18.9020     5.0890    26.8440 ca         1 R9E      -0.084000
      3 C5         -20.9320     5.7130    28.2430 c          1 R9E       0.596100
      4 C6         -22.3700     5.2500    28.5070 c3         1 R9E      -0.107100
      5 C7         -22.4480     4.4510    29.8040 ca         1 R9E      -0.070300
      6 C8         -22.6710     5.1060    31.0310 ca         1 R9E      -0.084000
      7 C10        -22.5800     2.9750    32.2040 ca         1 R9E      -0.095000
      8 C13        -18.0230     3.9950    26.9800 ca         1 R9E       0.316900
      9 C15        -17.0640     6.2970    25.8270 ca         1 R9E      -0.101000
     10 C17        -17.3340     8.5680    24.9970 ca         1 R9E       0.154000
     11 F          -16.7970     9.6640    24.4090 f          1 R9E      -0.164000
     12 C1         -18.6940     8.5560    25.3700 ca         1 R9E       0.130100
     13 O          -19.4600     9.6830    25.1200 os         1 R9E      -0.327100
     14 C          -20.8500     9.7710    25.4820 c3         1 R9E       0.145900
     15 C16        -16.5230     7.4460    25.2180 ca         1 R9E      -0.104000
     16 C3         -18.4170     6.2720    26.2300 ca         1 R9E       0.027000
     17 C2         -19.2340     7.4000    25.9810 ca         1 R9E      -0.173000
     18 C14        -16.2630     5.1560    26.0320 ca         1 R9E       0.365900
     19 N          -20.2320     4.9420    27.3260 ns         1 R9E      -0.168000
     20 O1         -20.4390     6.6730    28.8240 o          1 R9E      -0.568100
     21 C12        -22.2900     3.0500    29.7870 ca         1 R9E      -0.098000
     22 C11        -22.3560     2.3170    30.9840 ca         1 R9E       0.126000
     23 Cl         -22.1570     0.5700    30.9530 cl         1 R9E      -0.212000
     24 C9         -22.7370     4.3710    32.2280 ca         1 R9E      -0.099000
     25 H1         -23.0150     6.1330    28.5800 hc         1 R9E       0.066200
     26 H2         -22.7140     4.6210    27.6770 hc         1 R9E       0.066200
     27 H3         -22.7900     6.1880    31.0590 ha         1 R9E       0.121000
     28 H4         -22.6300     2.4040    33.1280 ha         1 R9E       0.132000
     29 H5         -18.3660     3.0670    27.4360 h4         1 R9E       0.022100
     30 H6         -21.2540    10.7510    25.2010 h1         1 R9E       0.048700
     31 H7         -21.4380     9.0010    24.9670 h1         1 R9E       0.048700
     32 H8         -20.9790     9.6490    26.5650 h1         1 R9E       0.048700
     33 H9         -15.4800     7.4710    24.9120 ha         1 R9E       0.140000
     34 H10        -20.2820     7.3730    26.2510 ha         1 R9E       0.129000
     35 H11        -15.2170     5.1480    25.7270 h4         1 R9E       0.024100
     36 H12        -20.7310     4.1380    26.9680 hn         1 R9E       0.155000
     37 H13        -22.1160     2.5270    28.8500 ha         1 R9E       0.124000
     38 H14        -22.9090     4.8840    33.1720 ha         1 R9E       0.122000
@<TRIPOS>BOND
     1     1     8 ar  
     2     1    18 ar  
     3     2     8 ar  
     4     2    16 ar  
     5     2    19 1   
     6     3     4 1   
     7     3    19 1   
     8     3    20 2   
     9     4     5 1   
    10     4    25 1   
    11     4    26 1   
    12     5     6 ar  
    13     5    21 ar  
    14     6    24 ar  
    15     6    27 1   
    16     7    22 ar  
    17     7    24 ar  
    18     7    28 1   
    19     8    29 1   
    20     9    15 ar  
    21     9    16 ar  
    22     9    18 ar  
    23    10    11 1   
    24    10    12 ar  
    25    10    15 ar  
    26    12    13 1   
    27    12    17 ar  
    28    13    14 1   
    29    14    30 1   
    30    14    31 1   
    31    14    32 1   
    32    15    33 1   
    33    16    17 ar  
    34    17    34 1   
    35    18    35 1   
    36    19    36 1   
    37    21    22 ar  
    38    21    37 1   
    39    22    23 1   
    40    24    38 1   
@<TRIPOS>SUBSTRUCTURE
     1 R9E         1 TEMP              0 ****  ****    0 ROOT
