@<TRIPOS>MOLECULE
R9F
   22    24     1     0     0
SMALL
abcg2


@<TRIPOS>ATOM
      1 C15        -49.8990   -28.9000     3.3500 ca         1 R9F      -0.168000
      2 C14        -48.5120   -28.9530     3.2960 ca         1 R9F      -0.049000
      3 C13        -47.7790   -29.0250     4.4810 cp         1 R9F      -0.060000
      4 C12        -46.3760   -29.0930     4.8180 cp         1 R9F      -0.254000
      5 C10        -45.1480   -29.1260     4.1350 ca         1 R9F       0.429900
      6 C02        -50.5320   -28.9180     4.5900 ca         1 R9F       0.184000
      7 C03        -49.8630   -28.9840     5.7970 ca         1 R9F      -0.169000
      8 C04        -48.4760   -29.0360     5.7220 ca         1 R9F       0.007800
      9 C06        -46.2910   -29.1370     6.2240 ca         1 R9F       0.205500
     10 C08        -44.0690   -29.2200     6.1700 ca         1 R9F       0.188900
     11 F01        -51.8900   -28.8670     4.6140 f          1 R9F      -0.182000
     12 N05        -47.5540   -29.1060     6.7490 na         1 R9F      -0.331300
     13 N07        -45.1610   -29.2000     6.9340 nb         1 R9F      -0.240000
     14 N09        -43.9980   -29.1890     4.8400 nb         1 R9F      -0.290000
     15 N11        -45.0430   -29.0720     2.7900 nv         1 R9F      -1.066900
     16 H151       -50.4950   -28.8430     2.4500 ha         1 R9F       0.134000
     17 H141       -48.0230   -28.9340     2.3310 ha         1 R9F       0.112000
     18 H031       -50.3980   -28.9910     6.7360 ha         1 R9F       0.139000
     19 H081       -43.1190   -29.2700     6.6930 h5         1 R9F       0.049100
     20 H051       -47.7690   -29.1170     7.7340 hn         1 R9F       0.370000
     21 H111       -44.1380   -29.2320     2.3790 hn         1 R9F       0.495000
     22 H112       -45.8470   -29.2060     2.2030 hn         1 R9F       0.495000
@<TRIPOS>BOND
     1     1     2 ar  
     2     1     6 ar  
     3     1    16 1   
     4     2     3 ar  
     5     2    17 1   
     6     3     4 1   
     7     3     8 ar  
     8     4     5 ar  
     9     4     9 ar  
    10     5    14 ar  
    11     5    15 1   
    12     6     7 ar  
    13     6    11 1   
    14     7     8 ar  
    15     7    18 1   
    16     8    12 1   
    17     9    12 1   
    18     9    13 ar  
    19    10    13 ar  
    20    10    14 ar  
    21    10    19 1   
    22    12    20 1   
    23    15    21 1   
    24    15    22 1   
@<TRIPOS>SUBSTRUCTURE
     1 R9F         1 TEMP              0 ****  ****    0 ROOT
