@<TRIPOS>MOLECULE
R9F
   22    24     1     0     0
SMALL
No Charge or Current Charge


@<TRIPOS>ATOM
      1 C15        -49.8700   -28.8760     3.3230 ca         1 R9F      -0.168000
      2 C14        -48.4570   -28.9250     3.3130 ca         1 R9F      -0.049000
      3 C13        -47.7820   -29.0180     4.5490 cp         1 R9F      -0.060000
      4 C12        -46.3640   -29.0800     4.9090 cp         1 R9F      -0.254000
      5 C10        -45.1720   -29.0920     4.1630 ca         1 R9F       0.429900
      6 C02        -50.5840   -28.9150     4.5440 ca         1 R9F       0.184000
      7 C03        -49.9070   -29.0000     5.7760 ca         1 R9F      -0.169000
      8 C04        -48.5120   -29.0480     5.7320 ca         1 R9F       0.007800
      9 C06        -46.2500   -29.1380     6.3010 ca         1 R9F       0.205500
     10 C08        -43.9810   -29.1970     6.1240 ca         1 R9F       0.188900
     11 F01        -51.9340   -28.8650     4.5280 f          1 R9F      -0.182000
     12 N05        -47.5710   -29.1210     6.7660 na         1 R9F      -0.331300
     13 N07        -45.0670   -29.1970     6.9340 nb         1 R9F      -0.240000
     14 N09        -43.9750   -29.1490     4.7680 nb         1 R9F      -0.290000
     15 N11        -45.1340   -29.0630     2.8080 nv         1 R9F      -1.066900
     16 H151       -50.4150   -28.8060     2.3850 ha         1 R9F       0.134000
     17 H141       -47.9160   -28.8860     2.3730 ha         1 R9F       0.112000
     18 H031       -50.4500   -29.0240     6.7170 ha         1 R9F       0.139000
     19 H081       -43.0100   -29.2440     6.6140 h5         1 R9F       0.049100
     20 H051       -47.8110   -29.1560     7.7490 hn         1 R9F       0.370000
     21 H111       -44.2490   -29.2870     2.3600 hn         1 R9F       0.495000
     22 H112       -45.9710   -29.3310     2.3010 hn         1 R9F       0.495000
@<TRIPOS>BOND
     1     1     2 ar  
     2     1     6 ar  
     3     1    16 1   
     4     2     3 ar  
     5     2    17 1   
     6     3     4 1   
     7     3     8 ar  
     8     4     5 ar  
     9     4     9 ar  
    10     5    14 ar  
    11     5    15 1   
    12     6     7 ar  
    13     6    11 1   
    14     7     8 ar  
    15     7    18 1   
    16     8    12 1   
    17     9    12 1   
    18     9    13 ar  
    19    10    13 ar  
    20    10    14 ar  
    21    10    19 1   
    22    12    20 1   
    23    15    21 1   
    24    15    22 1   
@<TRIPOS>SUBSTRUCTURE
     1 R9F         1 TEMP              0 ****  ****    0 ROOT
