@<TRIPOS>MOLECULE
R9G
   30    31     1     0     0
SMALL
bcc


@<TRIPOS>ATOM
      1 C4          17.1310     0.3990    49.6250 ca         1 R9G      -0.144000
      2 C5          16.8700     1.2350    50.7100 ca         1 R9G      -0.106600
      3 C6          15.8620     2.1830    50.6310 ca         1 R9G      -0.121000
      4 C7          17.5880     1.0650    52.0120 c          1 R9G       0.680700
      5 C8          19.6950     0.8310    53.2050 c5         1 R9G       0.101500
      6 C9          21.1420     0.8740    52.7280 c5         1 R9G      -0.096400
      7 C10         21.0840     1.8390    51.5490 c5         1 R9G      -0.096400
      8 C11         19.7810     1.4520    50.8620 c5         1 R9G       0.101500
      9 O1          16.9540     0.9360    53.0540 o          1 R9G      -0.598100
     10 N           18.9270     1.0430    51.9790 n          1 R9G      -0.480800
     11 C3          16.3800     0.5360    48.4700 ca         1 R9G      -0.099000
     12 C2          15.3850     1.5010    48.3690 ca         1 R9G      -0.203000
     13 C1          15.1250     2.3340    49.4550 ca         1 R9G       0.134100
     14 O           14.1850     3.2970    49.4660 os         1 R9G      -0.315900
     15 C           13.3990     3.4870    48.3070 c3         1 R9G       0.125700
     16 H1          17.8960    -0.3630    49.6860 ha         1 R9G       0.138000
     17 H2          15.6430     2.8240    51.4770 ha         1 R9G       0.159000
     18 H4          19.4280    -0.1170    53.6730 h1         1 R9G       0.052950
     19 H5          21.4600    -0.1150    52.3910 hc         1 R9G       0.054200
     20 H6          21.8220     1.1930    53.5170 hc         1 R9G       0.054200
     21 H7          21.9380     1.7590    50.8770 hc         1 R9G       0.054200
     22 H8          21.0310     2.8700    51.9060 hc         1 R9G       0.054200
     23 H9          19.3340     2.2730    50.3030 h1         1 R9G       0.052950
     24 H10         19.9450     0.6230    50.1680 h1         1 R9G       0.052950
     25 H11         16.5660    -0.1170    47.6280 ha         1 R9G       0.131000
     26 H12         14.8250     1.5810    47.4470 ha         1 R9G       0.135000
     27 H13         12.7070     4.2940    48.5320 h1         1 R9G       0.041033
     28 H14         14.0070     3.7750    47.4440 h1         1 R9G       0.041033
     29 H15         12.8250     2.5930    48.0510 h1         1 R9G       0.041033
     30 H3          19.4940     1.6280    53.9260 h1         1 R9G       0.052950
@<TRIPOS>BOND
     1     1     2 ar  
     2     1    11 ar  
     3     1    16 1   
     4     2     3 ar  
     5     2     4 1   
     6     3    13 ar  
     7     3    17 1   
     8     4     9 2   
     9     4    10 1   
    10     5     6 1   
    11     5    10 1   
    12     5    18 1   
    13     5    30 1   
    14     6     7 1   
    15     6    19 1   
    16     6    20 1   
    17     7     8 1   
    18     7    21 1   
    19     7    22 1   
    20     8    10 1   
    21     8    23 1   
    22     8    24 1   
    23    11    12 ar  
    24    11    25 1   
    25    12    13 ar  
    26    12    26 1   
    27    13    14 1   
    28    14    15 1   
    29    15    27 1   
    30    15    28 1   
    31    15    29 1   
@<TRIPOS>SUBSTRUCTURE
     1 R9G         1 TEMP              0 ****  ****    0 ROOT
