@<TRIPOS>MOLECULE
R9G
   30    31     1     0     0
SMALL
No Charge or Current Charge


@<TRIPOS>ATOM
      1 C4          17.2090     0.5930    49.6080 ca         1 R9G      -0.126000
      2 C5          16.8620     1.3880    50.7250 ca         1 R9G      -0.106600
      3 C6          15.7380     2.2380    50.6220 ca         1 R9G      -0.103000
      4 C7          17.6150     1.3120    52.0390 c          1 R9G       0.613700
      5 C8          19.7580     0.8320    53.2760 c5         1 R9G       0.101500
      6 C9          21.1880     0.6040    52.7320 c5         1 R9G      -0.096400
      7 C10         21.2500     1.6870    51.6280 c5         1 R9G      -0.096400
      8 C11         19.8880     1.4870    50.9120 c5         1 R9G       0.101500
      9 O1          17.0160     1.4040    53.1050 o          1 R9G      -0.598100
     10 N           19.0040     1.0570    52.0240 n          1 R9G      -0.413800
     11 C3          16.4780     0.6800    48.4120 ca         1 R9G      -0.081000
     12 C2          15.3810     1.5510    48.3150 ca         1 R9G      -0.185000
     13 C1          15.0030     2.3310    49.4290 ca         1 R9G       0.134100
     14 O           13.9270     3.1950    49.3990 os         1 R9G      -0.339100
     15 C           13.1100     3.3650    48.2270 c3         1 R9G       0.148900
     16 H1          18.0260    -0.1210    49.6700 ha         1 R9G       0.120000
     17 H2          15.4370     2.8440    51.4740 ha         1 R9G       0.141000
     18 H4          19.3860    -0.0380    53.8340 h1         1 R9G       0.052950
     19 H5          21.3010    -0.4040    52.3140 hc         1 R9G       0.054200
     20 H6          21.9560     0.7340    53.5020 hc         1 R9G       0.054200
     21 H7          22.1020     1.5580    50.9500 hc         1 R9G       0.054200
     22 H8          21.3240     2.6910    52.0620 hc         1 R9G       0.054200
     23 H9          19.5380     2.4080    50.4270 h1         1 R9G       0.052950
     24 H10         19.9730     0.7010    50.1510 h1         1 R9G       0.052950
     25 H11         16.7570     0.0630    47.5600 ha         1 R9G       0.113000
     26 H12         14.8330     1.5980    47.3790 ha         1 R9G       0.117000
     27 H13         12.3150     4.0950    48.4200 h1         1 R9G       0.041033
     28 H14         13.7090     3.7300    47.3830 h1         1 R9G       0.041033
     29 H15         12.6380     2.4160    47.9400 h1         1 R9G       0.041033
     30 H3          19.7080     1.7150    53.9280 h1         1 R9G       0.052950
@<TRIPOS>BOND
     1     1     2 ar  
     2     1    11 ar  
     3     1    16 1   
     4     2     3 ar  
     5     2     4 1   
     6     3    13 ar  
     7     3    17 1   
     8     4     9 2   
     9     4    10 1   
    10     5     6 1   
    11     5    10 1   
    12     5    18 1   
    13     5    30 1   
    14     6     7 1   
    15     6    19 1   
    16     6    20 1   
    17     7     8 1   
    18     7    21 1   
    19     7    22 1   
    20     8    10 1   
    21     8    23 1   
    22     8    24 1   
    23    11    12 ar  
    24    11    25 1   
    25    12    13 ar  
    26    12    26 1   
    27    13    14 1   
    28    14    15 1   
    29    15    27 1   
    30    15    28 1   
    31    15    29 1   
@<TRIPOS>SUBSTRUCTURE
     1 R9G         1 TEMP              0 ****  ****    0 ROOT
