@<TRIPOS>MOLECULE
R9I
   57    60     1     0     0
SMALL
No Charge or Current Charge


@<TRIPOS>ATOM
      1 N1         -21.8610     6.9040    29.9950 n3         1 R9I      -0.795500
      2 N3         -16.5710     4.5050    27.1090 nb         1 R9I      -0.646000
      3 C4         -22.6410     6.2350    28.9340 c6         1 R9I       0.226800
      4 C5         -22.2600     4.7360    28.8130 c6         1 R9I      -0.098400
      5 C6         -20.8970     4.4760    28.1290 c          1 R9I       0.607100
      6 C7         -18.7310     5.6000    27.4120 ca         1 R9I      -0.078000
      7 C8         -17.8320     4.5240    27.6000 ca         1 R9I       0.324900
      8 C10        -16.9770     6.6980    26.1490 ca         1 R9I      -0.091000
      9 C13        -18.6330     8.9150    25.6560 ca         1 R9I      -0.082000
     10 C15        -18.2900     6.7190    26.6680 ca         1 R9I      -0.030000
     11 C17        -22.3080     2.6310    30.2610 ca         1 R9I      -0.084000
     12 C20        -22.1690     4.1450    32.6190 ca         1 R9I      -0.101000
     13 C21        -22.1910     4.7980    31.3710 ca         1 R9I      -0.065300
     14 C22        -22.1870     6.3280    31.3250 c6         1 R9I       0.258100
     15 C18        -22.2830     1.9870    31.5080 ca         1 R9I       0.127000
     16 C19        -22.2110     2.7420    32.6880 ca         1 R9I      -0.089000
     17 S          -21.9770     8.6080    29.9470 s6         1 R9I       1.360200
     18 O2         -21.3460     9.0930    28.7220 o          1 R9I      -0.567500
     19 O3         -23.3500     8.9530    30.3190 o          1 R9I      -0.567500
     20 N          -20.9380     8.9870    31.2520 n3         1 R9I      -0.786500
     21 C3         -21.0390    10.3860    31.7120 c3         1 R9I       0.214100
     22 C2         -19.5250     8.4770    31.1390 c3         1 R9I       0.153800
     23 C1         -18.5470     9.1250    30.1160 c          1 R9I       0.563100
     24 O1         -18.5570    10.3080    29.7920 o          1 R9I      -0.474000
     25 O          -17.5530     8.2480    29.7600 os         1 R9I      -0.440100
     26 C          -16.4980     8.7300    28.9070 c3         1 R9I       0.151900
     27 C16        -22.2560     4.0380    30.1830 ca         1 R9I      -0.048300
     28 O4         -20.6190     3.3630    27.6940 o          1 R9I      -0.564100
     29 N2         -20.0420     5.5580    27.9640 ns         1 R9I      -0.159000
     30 C14        -19.1180     7.8320    26.4110 ca         1 R9I      -0.103000
     31 C12        -17.3230     8.8920    25.1490 ca         1 R9I      -0.109000
     32 C11        -16.4940     7.7840    25.3930 ca         1 R9I      -0.093000
     33 C9         -16.1600     5.5770    26.3960 ca         1 R9I       0.345900
     34 H1         -22.4900     6.7200    27.9570 h1         1 R9I       0.067200
     35 H2         -23.7170     6.3110    29.1530 h1         1 R9I       0.067200
     36 H3         -23.0080     4.2250    28.1930 hc         1 R9I       0.075700
     37 H4         -18.1200     3.6500    28.1840 h4         1 R9I       0.038100
     38 H5         -19.2760     9.7710    25.4630 ha         1 R9I       0.125000
     39 H6         -22.3630     2.0330    29.3550 ha         1 R9I       0.130000
     40 H7         -22.1250     4.7250    33.5390 ha         1 R9I       0.120000
     41 H8         -21.4800     6.6770    32.0900 h1         1 R9I       0.065700
     42 H9         -23.1830     6.6640    31.6500 h1         1 R9I       0.065700
     43 H10        -22.1940     2.2410    33.6520 ha         1 R9I       0.133000
     44 H11        -20.3900    10.5600    32.5800 h1         1 R9I       0.055700
     45 H12        -20.7510    11.0920    30.9210 h1         1 R9I       0.055700
     46 H13        -22.0670    10.6240    32.0170 h1         1 R9I       0.055700
     47 H14        -19.5260     7.4040    30.9090 h1         1 R9I       0.097200
     48 H15        -19.0240     8.5630    32.1110 h1         1 R9I       0.097200
     49 H16        -15.8040     7.9170    28.6600 h1         1 R9I       0.051700
     50 H17        -16.9040     9.1290    27.9690 h1         1 R9I       0.051700
     51 H18        -15.9290     9.5270    29.4020 h1         1 R9I       0.051700
     52 H19        -20.3860     6.4380    28.3310 hn         1 R9I       0.155000
     53 H20        -20.1380     7.8680    26.7800 ha         1 R9I       0.129000
     54 H21        -16.9520     9.7310    24.5640 ha         1 R9I       0.119000
     55 H22        -15.4820     7.7700    24.9940 ha         1 R9I       0.117000
     56 H23        -15.1420     5.5340    26.0090 h4         1 R9I       0.020100
     57 Cl         -22.3420     0.2310    31.5900 cl         1 R9I      -0.205000
@<TRIPOS>BOND
     1     1     3 1   
     2     1    14 1   
     3     1    17 1   
     4     2     7 ar  
     5     2    33 ar  
     6     3     4 1   
     7     3    34 1   
     8     3    35 1   
     9     4     5 1   
    10     4    27 1   
    11     4    36 1   
    12     5    28 2   
    13     5    29 1   
    14     6     7 ar  
    15     6    10 ar  
    16     6    29 1   
    17     7    37 1   
    18     8    10 ar  
    19     8    32 ar  
    20     8    33 ar  
    21     9    30 ar  
    22     9    31 ar  
    23     9    38 1   
    24    10    30 ar  
    25    11    15 ar  
    26    11    27 ar  
    27    11    39 1   
    28    12    13 ar  
    29    12    16 ar  
    30    12    40 1   
    31    13    14 1   
    32    13    27 ar  
    33    14    41 1   
    34    14    42 1   
    35    15    16 ar  
    36    15    57 1   
    37    16    43 1   
    38    17    18 2   
    39    17    19 2   
    40    17    20 1   
    41    20    21 1   
    42    20    22 1   
    43    21    44 1   
    44    21    45 1   
    45    21    46 1   
    46    22    23 1   
    47    22    47 1   
    48    22    48 1   
    49    23    24 2   
    50    23    25 1   
    51    25    26 1   
    52    26    49 1   
    53    26    50 1   
    54    26    51 1   
    55    29    52 1   
    56    30    53 1   
    57    31    32 ar  
    58    31    54 1   
    59    32    55 1   
    60    33    56 1   
@<TRIPOS>SUBSTRUCTURE
     1 R9I         1 TEMP              0 ****  ****    0 ROOT
