@<TRIPOS>MOLECULE
R9I
   57    60     1     0     0
SMALL
abcg2


@<TRIPOS>ATOM
      1 N1         -22.1090     6.9280    30.1750 n3         1 R9I      -0.795500
      2 N3         -16.3640     4.8640    27.1700 nb         1 R9I      -0.646000
      3 C4         -22.5550     6.2240    28.9730 c6         1 R9I       0.226800
      4 C5         -21.9370     4.8230    29.0070 c6         1 R9I      -0.098400
      5 C6         -20.4090     4.9070    28.8620 c          1 R9I       0.607100
      6 C7         -18.6600     5.5780    27.2520 ca         1 R9I      -0.078000
      7 C8         -17.6530     4.6930    27.5560 ca         1 R9I       0.324900
      8 C10        -17.0110     6.8950    26.0580 ca         1 R9I      -0.091000
      9 C13        -18.9070     8.8510    25.4520 ca         1 R9I      -0.082000
     10 C15        -18.3540     6.7480    26.5030 ca         1 R9I      -0.030000
     11 C17        -22.3440     2.7360    30.3450 ca         1 R9I      -0.084000
     12 C20        -22.9290     4.2090    32.6180 ca         1 R9I      -0.101000
     13 C21        -22.6040     4.8730    31.4350 ca         1 R9I      -0.065300
     14 C22        -22.6180     6.3820    31.4340 c6         1 R9I       0.258100
     15 C18        -22.6680     2.1010    31.5310 ca         1 R9I       0.127000
     16 C19        -22.9620     2.8250    32.6800 ca         1 R9I      -0.089000
     17 S          -21.8380     8.5430    30.1380 s6         1 R9I       1.360200
     18 O2         -21.5200     8.8590    28.7670 o          1 R9I      -0.567500
     19 O3         -22.9040     9.2800    30.7740 o          1 R9I      -0.567500
     20 N          -20.5420     8.6730    31.1180 n3         1 R9I      -0.786500
     21 C3         -20.4700     9.7200    32.1400 c3         1 R9I       0.214100
     22 C2         -19.3050     8.0570    30.6860 c3         1 R9I       0.153800
     23 C1         -18.4030     8.9580    29.8570 c          1 R9I       0.563100
     24 O1         -18.6370    10.1040    29.5560 o          1 R9I      -0.474000
     25 O          -17.2910     8.3010    29.5210 os         1 R9I      -0.440100
     26 C          -16.3130     9.0380    28.7560 c3         1 R9I       0.151900
     27 C16        -22.3100     4.1290    30.2930 ca         1 R9I      -0.048300
     28 O4         -19.6420     4.6370    29.7740 o          1 R9I      -0.564100
     29 N2         -19.9940     5.3380    27.6400 ns         1 R9I      -0.159000
     30 C14        -19.2900     7.7630    26.1960 ca         1 R9I      -0.103000
     31 C12        -17.5830     8.9770    24.9760 ca         1 R9I      -0.109000
     32 C11        -16.6500     8.0200    25.2800 ca         1 R9I      -0.093000
     33 C9         -16.0670     5.9150    26.4410 ca         1 R9I       0.345900
     34 H1         -22.2400     6.7840    28.1010 h1         1 R9I       0.067200
     35 H2         -23.6460     6.1400    28.9530 h1         1 R9I       0.067200
     36 H3         -22.3260     4.2570    28.1570 hc         1 R9I       0.075700
     37 H4         -17.8690     3.8030    28.1290 h4         1 R9I       0.038100
     38 H5         -19.6270     9.6280    25.2300 ha         1 R9I       0.125000
     39 H6         -22.1170     2.1570    29.4600 ha         1 R9I       0.130000
     40 H7         -23.1590     4.7850    33.5070 ha         1 R9I       0.120000
     41 H8         -21.9960     6.7570    32.2480 h1         1 R9I       0.065700
     42 H9         -23.6420     6.7320    31.6140 h1         1 R9I       0.065700
     43 H10        -23.2120     2.3170    33.6000 ha         1 R9I       0.133000
     44 H11        -19.7750     9.3770    32.9070 h1         1 R9I       0.055700
     45 H12        -20.1160    10.6670    31.7320 h1         1 R9I       0.055700
     46 H13        -21.4480     9.8580    32.5890 h1         1 R9I       0.055700
     47 H14        -19.5140     7.1550    30.1140 h1         1 R9I       0.097200
     48 H15        -18.7450     7.7370    31.5670 h1         1 R9I       0.097200
     49 H16        -15.5200     8.3290    28.5410 h1         1 R9I       0.051700
     50 H17        -16.7570     9.4030    27.8340 h1         1 R9I       0.051700
     51 H18        -15.9350     9.8730    29.3450 h1         1 R9I       0.051700
     52 H19        -20.7070     5.5690    26.9640 hn         1 R9I       0.155000
     53 H20        -20.3030     7.6980    26.5690 ha         1 R9I       0.129000
     54 H21        -17.3060     9.8410    24.3870 ha         1 R9I       0.119000
     55 H22        -15.6250     8.1150    24.9440 ha         1 R9I       0.117000
     56 H23        -15.0350     6.0270    26.1220 h4         1 R9I       0.020100
     57 CL         -22.7090     0.3500    31.5840 cl         1 R9I      -0.205000
@<TRIPOS>BOND
     1     1     3 1   
     2     1    14 1   
     3     1    17 1   
     4     2     7 ar  
     5     2    33 ar  
     6     3     4 1   
     7     3    34 1   
     8     3    35 1   
     9     4     5 1   
    10     4    27 1   
    11     4    36 1   
    12     5    28 2   
    13     5    29 1   
    14     6     7 ar  
    15     6    10 ar  
    16     6    29 1   
    17     7    37 1   
    18     8    10 ar  
    19     8    32 ar  
    20     8    33 ar  
    21     9    30 ar  
    22     9    31 ar  
    23     9    38 1   
    24    10    30 ar  
    25    11    15 ar  
    26    11    27 ar  
    27    11    39 1   
    28    12    13 ar  
    29    12    16 ar  
    30    12    40 1   
    31    13    14 1   
    32    13    27 ar  
    33    14    41 1   
    34    14    42 1   
    35    15    16 ar  
    36    15    57 1   
    37    16    43 1   
    38    17    18 2   
    39    17    19 2   
    40    17    20 1   
    41    20    21 1   
    42    20    22 1   
    43    21    44 1   
    44    21    45 1   
    45    21    46 1   
    46    22    23 1   
    47    22    47 1   
    48    22    48 1   
    49    23    24 2   
    50    23    25 1   
    51    25    26 1   
    52    26    49 1   
    53    26    50 1   
    54    26    51 1   
    55    29    52 1   
    56    30    53 1   
    57    31    32 ar  
    58    31    54 1   
    59    32    55 1   
    60    33    56 1   
@<TRIPOS>SUBSTRUCTURE
     1 R9I         1 TEMP              0 ****  ****    0 ROOT
