@<TRIPOS>MOLECULE
R9J
   28    28     1     0     0
SMALL
No Charge or Current Charge


@<TRIPOS>ATOM
      1 C4          23.7930     0.4830    60.0660 ca         1 R9J       0.370000
      2 C5          23.5050    -0.3800    58.9990 ca         1 R9J      -0.216000
      3 C6          22.8380    -1.5960    59.2280 ca         1 R9J      -0.062500
      4 C7          25.7580     2.1600    60.3670 c3         1 R9J       0.081200
      5 C8          26.5850     0.9510    60.8920 c3         1 R9J      -0.074600
      6 C9          25.4560     3.1510    61.5240 c3         1 R9J      -0.074600
      7 C10         26.6180     2.9110    59.2460 c          1 R9J       0.721000
      8 O1          26.1710     2.9500    58.1020 o          1 R9J      -0.716500
      9 O           27.6760     3.4450    59.5580 o          1 R9J      -0.716500
     10 N           24.4430     1.6880    59.8020 nu         1 R9J      -0.935200
     11 C3          23.3880     0.1350    61.3650 ca         1 R9J      -0.216000
     12 C2          22.7200    -1.0790    61.6010 ca         1 R9J      -0.062500
     13 C1          22.4470    -1.9520    60.5320 ca         1 R9J      -0.187300
     14 C           21.7210    -3.2660    60.7820 c3         1 R9J      -0.016800
     15 H1          23.8050    -0.1150    57.9890 ha         1 R9J       0.110000
     16 H2          22.6260    -2.2590    58.3920 ha         1 R9J       0.085000
     17 H3          27.5610     1.2810    61.2640 hc         1 R9J       0.024533
     18 H4          26.0790     0.4400    61.7190 hc         1 R9J       0.024533
     19 H5          26.7610     0.2220    60.0910 hc         1 R9J       0.024533
     20 H6          26.3850     3.5220    61.9730 hc         1 R9J       0.024533
     21 H7          24.8920     4.0170    61.1560 hc         1 R9J       0.024533
     22 H8          24.8720     2.6770    62.3200 hc         1 R9J       0.024533
     23 H10         24.3670     1.9480    58.8140 hn         1 R9J       0.511000
     24 H11         23.5850     0.8050    62.1950 ha         1 R9J       0.110000
     25 H12         22.4140    -1.3370    62.6120 ha         1 R9J       0.085000
     26 H13         22.0230    -4.0340    60.0600 hc         1 R9J       0.019700
     27 H14         21.9340    -3.6560    61.7850 hc         1 R9J       0.019700
     28 H15         20.6350    -3.1340    60.6980 hc         1 R9J       0.019700
@<TRIPOS>BOND
     1     1     2 ar  
     2     1    10 1   
     3     1    11 ar  
     4     2     3 ar  
     5     2    15 1   
     6     3    13 ar  
     7     3    16 1   
     8     4     5 1   
     9     4     6 1   
    10     4     7 1   
    11     4    10 1   
    12     5    17 1   
    13     5    18 1   
    14     5    19 1   
    15     6    20 1   
    16     6    21 1   
    17     6    22 1   
    18     7     8 1   
    19     7     9 1   
    20    10    23 1   
    21    11    12 ar  
    22    11    24 1   
    23    12    13 ar  
    24    12    25 1   
    25    13    14 1   
    26    14    26 1   
    27    14    27 1   
    28    14    28 1   
@<TRIPOS>SUBSTRUCTURE
     1 R9J         1 TEMP              0 ****  ****    0 ROOT
