@<TRIPOS>MOLECULE
R9J
   28    28     1     0     0
SMALL
abcg2


@<TRIPOS>ATOM
      1 C4          24.0050     0.3410    59.9730 ca         1 R9J       0.370000
      2 C5          23.3860    -0.4090    58.9520 ca         1 R9J      -0.216000
      3 C6          22.5910    -1.5020    59.2350 ca         1 R9J      -0.062500
      4 C7          25.7790     2.1190    60.3730 c3         1 R9J       0.081200
      5 C8          26.8100     1.1450    60.9620 c3         1 R9J      -0.074600
      6 C9          25.1890     3.0070    61.4720 c3         1 R9J      -0.074600
      7 C10         26.5430     3.0280    59.3460 c          1 R9J       0.721000
      8 O1          26.2730     2.8690    58.1360 o          1 R9J      -0.716500
      9 O           27.3740     3.8150    59.8260 o          1 R9J      -0.716500
     10 N           24.7380     1.4400    59.6210 nu         1 R9J      -0.935200
     11 C3          23.7760    -0.0870    61.2880 ca         1 R9J      -0.216000
     12 C2          22.9780    -1.1950    61.5520 ca         1 R9J      -0.062500
     13 C1          22.3630    -1.9280    60.5450 ca         1 R9J      -0.187300
     14 C           21.4960    -3.1190    60.8390 c3         1 R9J      -0.016800
     15 H1          23.5400    -0.1170    57.9190 ha         1 R9J       0.110000
     16 H2          22.1390    -2.0430    58.4100 ha         1 R9J       0.085000
     17 H3          27.6100     1.6930    61.4590 hc         1 R9J       0.024533
     18 H4          26.3680     0.4720    61.6970 hc         1 R9J       0.024533
     19 H5          27.2560     0.5310    60.1770 hc         1 R9J       0.024533
     20 H6          25.9760     3.5620    61.9800 hc         1 R9J       0.024533
     21 H7          24.4820     3.7250    61.0520 hc         1 R9J       0.024533
     22 H8          24.6600     2.4280    62.2300 hc         1 R9J       0.024533
     23 H10         24.8960     1.5650    58.6290 hn         1 R9J       0.511000
     24 H11         24.2090     0.4410    62.1250 ha         1 R9J       0.110000
     25 H12         22.8320    -1.4870    62.5860 ha         1 R9J       0.085000
     26 H13         21.8520    -4.0160    60.3280 hc         1 R9J       0.019700
     27 H14         21.4720    -3.3380    61.9060 hc         1 R9J       0.019700
     28 H15         20.4650    -2.9600    60.5150 hc         1 R9J       0.019700
@<TRIPOS>BOND
     1     1     2 ar  
     2     1    10 1   
     3     1    11 ar  
     4     2     3 ar  
     5     2    15 1   
     6     3    13 ar  
     7     3    16 1   
     8     4     5 1   
     9     4     6 1   
    10     4     7 1   
    11     4    10 1   
    12     5    17 1   
    13     5    18 1   
    14     5    19 1   
    15     6    20 1   
    16     6    21 1   
    17     6    22 1   
    18     7     8 1   
    19     7     9 1   
    20    10    23 1   
    21    11    12 ar  
    22    11    24 1   
    23    12    13 ar  
    24    12    25 1   
    25    13    14 1   
    26    14    26 1   
    27    14    27 1   
    28    14    28 1   
@<TRIPOS>SUBSTRUCTURE
     1 R9J         1 TEMP              0 ****  ****    0 ROOT
