@<TRIPOS>MOLECULE
R9K
   31    33     1     0     0
SMALL
bcc


@<TRIPOS>ATOM
      1 C10        -24.1380     0.8420    61.6870 cc         1 R9K      -0.147400
      2 C15        -24.7540     5.0000    60.8790 ca         1 R9K      -0.145000
      3 C17        -24.4760     2.7410    60.1140 ca         1 R9K      -0.088000
      4 C01        -24.6930    -3.7740    62.8380 c3         1 R9K      -0.034800
      5 C02        -25.2890    -2.4000    62.8480 ca         1 R9K      -0.097300
      6 C03        -26.5430    -2.1290    63.3670 ca         1 R9K      -0.140000
      7 C04        -27.0920    -0.8340    63.3620 ca         1 R9K      -0.178000
      8 C05        -26.3960     0.2360    62.8400 ca         1 R9K      -0.086000
      9 C06        -25.1210     0.0050    62.3060 ca         1 R9K      -0.074800
     10 C07        -24.5970    -1.3030    62.3180 ca         1 R9K      -0.064200
     11 C09        -23.0810     0.0290    61.3490 cd         1 R9K      -0.059300
     12 C11        -24.3100     2.2750    61.4190 ca         1 R9K       0.072200
     13 C12        -24.3750     3.2230    62.4390 ca         1 R9K       0.037400
     14 C14        -24.5950     4.5700    62.1860 ca         1 R9K      -0.140000
     15 C16        -24.6940     4.0810    59.8390 ca         1 R9K      -0.137000
     16 C18        -21.7520     0.3190    60.6940 c          1 R9K       0.935800
     17 N08        -23.3680    -1.2490    61.7370 na         1 R9K      -0.145400
     18 O19        -21.4900     1.5100    60.4620 o          1 R9K      -0.808800
     19 O20        -21.0520    -0.6870    60.4620 o          1 R9K      -0.808800
     20 CL1        -24.1490     2.7290    64.0890 cl         1 R9K      -0.133400
     21 H011       -23.7480    -3.8050    63.3850 hc         1 R9K       0.030700
     22 H012       -25.3660    -4.4980    63.2940 hc         1 R9K       0.030700
     23 H013       -24.4830    -4.1110    61.8210 hc         1 R9K       0.030700
     24 H031       -27.1210    -2.9430    63.7880 ha         1 R9K       0.105000
     25 H041       -28.0790    -0.6810    63.7800 ha         1 R9K       0.107000
     26 H051       -26.8270     1.2300    62.8360 ha         1 R9K       0.124000
     27 H141       -24.6350     5.2760    63.0050 ha         1 R9K       0.125000
     28 H161       -24.8190     4.4090    58.8150 ha         1 R9K       0.117000
     29 H081       -22.7310    -2.0150    61.5860 hn         1 R9K       0.315700
     30 H151       -24.9260     6.0490    60.6780 ha         1 R9K       0.112000
     31 H171       -24.4400     2.0240    59.3050 ha         1 R9K       0.141000
@<TRIPOS>BOND
     1     1     9 1   
     2     1    11 2   
     3     1    12 1   
     4     2    14 ar  
     5     2    15 ar  
     6     2    30 1   
     7     3    12 ar  
     8     3    15 ar  
     9     3    31 1   
    10     4     5 1   
    11     4    21 1   
    12     4    22 1   
    13     4    23 1   
    14     5     6 ar  
    15     5    10 ar  
    16     6     7 ar  
    17     6    24 1   
    18     7     8 ar  
    19     7    25 1   
    20     8     9 ar  
    21     8    26 1   
    22     9    10 ar  
    23    10    17 1   
    24    11    16 1   
    25    11    17 1   
    26    12    13 ar  
    27    13    14 ar  
    28    13    20 1   
    29    14    27 1   
    30    15    28 1   
    31    16    18 1   
    32    16    19 1   
    33    17    29 1   
@<TRIPOS>SUBSTRUCTURE
     1 R9K         1 TEMP              0 ****  ****    0 ROOT
