@<TRIPOS>MOLECULE
R9K
   31    33     1     0     0
SMALL
No Charge or Current Charge


@<TRIPOS>ATOM
      1 C10        -24.1850     0.8180    61.7210 cc         1 R9K      -0.147400
      2 C15        -24.6760     4.9870    60.8720 ca         1 R9K      -0.127000
      3 C17        -24.9910     2.6500    60.2650 ca         1 R9K      -0.070000
      4 C01        -24.6880    -3.7880    62.9150 c3         1 R9K      -0.034800
      5 C02        -25.3330    -2.4150    62.7920 ca         1 R9K      -0.097300
      6 C03        -26.6880    -2.2110    63.1450 ca         1 R9K      -0.122000
      7 C04        -27.2800    -0.9310    63.0280 ca         1 R9K      -0.160000
      8 C05        -26.5250     0.1620    62.5570 ca         1 R9K      -0.068000
      9 C06        -25.1870    -0.0720    62.2150 ca         1 R9K      -0.074800
     10 C07        -24.6060    -1.3040    62.3260 ca         1 R9K      -0.064200
     11 C09        -23.0090     0.0830    61.5270 cd         1 R9K      -0.059300
     12 C11        -24.3270     2.2430    61.4380 ca         1 R9K       0.072200
     13 C12        -23.8470     3.2230    62.3360 ca         1 R9K       0.129000
     14 C14        -24.0210     4.5900    62.0500 ca         1 R9K      -0.122000
     15 C16        -25.1630     4.0160    59.9810 ca         1 R9K      -0.119000
     16 C18        -21.6940     0.5810    60.9910 c          1 R9K       0.725200
     17 N08        -23.2770    -1.2570    61.9230 na         1 R9K      -0.195700
     18 O19        -21.5690     1.7460    60.6400 o          1 R9K      -0.703500
     19 O20        -20.7790    -0.2280    60.9070 o          1 R9K      -0.703500
     20 Cl1        -23.0450     2.7640    63.8420 cl         1 R9K      -0.225000
     21 H011       -23.8340    -3.7610    63.6030 hc         1 R9K       0.030700
     22 H012       -25.3950    -4.5360    63.2950 hc         1 R9K       0.030700
     23 H013       -24.3260    -4.1410    61.9420 hc         1 R9K       0.030700
     24 H031       -27.2850    -3.0430    63.5100 ha         1 R9K       0.087000
     25 H041       -28.3220    -0.7890    63.3030 ha         1 R9K       0.089000
     26 H051       -26.9650     1.1520    62.4630 ha         1 R9K       0.106000
     27 H141       -23.6510     5.3390    62.7440 ha         1 R9K       0.107000
     28 H161       -25.6740     4.3210    59.0700 ha         1 R9K       0.099000
     29 H081       -22.6170    -2.0270    61.8970 hn         1 R9K       0.366000
     30 H151       -24.8100     6.0440    60.6530 ha         1 R9K       0.094000
     31 H171       -25.3730     1.9010    59.5760 ha         1 R9K       0.123000
@<TRIPOS>BOND
     1     1     9 1   
     2     1    11 2   
     3     1    12 1   
     4     2    14 ar  
     5     2    15 ar  
     6     2    30 1   
     7     3    12 ar  
     8     3    15 ar  
     9     3    31 1   
    10     4     5 1   
    11     4    21 1   
    12     4    22 1   
    13     4    23 1   
    14     5     6 ar  
    15     5    10 ar  
    16     6     7 ar  
    17     6    24 1   
    18     7     8 ar  
    19     7    25 1   
    20     8     9 ar  
    21     8    26 1   
    22     9    10 ar  
    23    10    17 1   
    24    11    16 1   
    25    11    17 1   
    26    12    13 ar  
    27    13    14 ar  
    28    13    20 1   
    29    14    27 1   
    30    15    28 1   
    31    16    18 1   
    32    16    19 1   
    33    17    29 1   
@<TRIPOS>SUBSTRUCTURE
     1 R9K         1 TEMP              0 ****  ****    0 ROOT
