@<TRIPOS>MOLECULE
R9L
   35    38     1     0     0
SMALL
abcg2


@<TRIPOS>ATOM
      1 C16        -43.8920   -30.9300     1.7930 cy         1 R9L      -0.065700
      2 C17        -44.9990   -31.8390     1.1830 cy         1 R9L      -0.293900
      3 C15        -44.2490   -29.4480     1.8460 c3         1 R9L       0.250800
      4 C13        -45.3640   -29.1440     4.0340 ca         1 R9L       0.431900
      5 C11        -44.1200   -29.1690     5.9730 ca         1 R9L       0.187900
      6 C02        -50.6840   -28.7460     4.9350 ca         1 R9L       0.186000
      7 C03        -50.1610   -28.8110     3.6470 ca         1 R9L      -0.166000
      8 C04        -48.7860   -28.9030     3.4770 ca         1 R9L      -0.050000
      9 C05        -47.9530   -28.9290     4.5980 cp         1 R9L      -0.064000
     10 C06        -48.5410   -28.8540     5.8920 ca         1 R9L       0.008800
     11 C07        -49.9150   -28.7610     6.0820 ca         1 R9L      -0.168000
     12 C09        -46.3240   -28.9950     6.2100 ca         1 R9L       0.204500
     13 C21        -42.7590   -31.2620     0.7810 cy         1 R9L      -0.293900
     14 C22        -46.5290   -29.0230     4.8180 cp         1 R9L      -0.252000
     15 F01        -52.0340   -28.6620     5.0720 f          1 R9L      -0.181000
     16 N08        -47.5360   -28.8930     6.8380 na         1 R9L      -0.329300
     17 N10        -45.1380   -29.0620     6.8240 nb         1 R9L      -0.235000
     18 N12        -44.1620   -29.2180     4.6420 nb         1 R9L      -0.290000
     19 N14        -45.4020   -29.1770     2.6840 nu         1 R9L      -0.922100
     20 S18        -43.7520   -32.6270     0.1450 s6         1 R9L       1.078000
     21 H172       -45.5020   -32.5280     1.8550 h1         1 R9L       0.112200
     22 H171       -45.7170   -31.3030     0.5620 h1         1 R9L       0.112200
     23 H151       -43.3950   -28.8830     2.2180 h1         1 R9L       0.067200
     24 H152       -44.4830   -29.0900     0.8420 h1         1 R9L       0.067200
     25 H111       -43.1300   -29.2270     6.4160 h5         1 R9L       0.050100
     26 H031       -50.8320   -28.7910     2.7990 ha         1 R9L       0.135000
     27 H041       -48.3860   -28.9510     2.4730 ha         1 R9L       0.110000
     28 H071       -50.3670   -28.7060     7.0630 ha         1 R9L       0.140000
     29 H212       -42.6240   -30.5060     0.0090 h1         1 R9L       0.112200
     30 H211       -41.8040   -31.5770     1.1920 h1         1 R9L       0.112200
     31 H081       -47.6660   -28.8570     7.8380 hn         1 R9L       0.371000
     32 H141       -46.3040   -29.2110     2.2420 hn         1 R9L       0.496000
     33 H161       -43.6260   -31.2810     2.7870 hc         1 R9L       0.098700
     34 O19        -43.3220   -33.9020     0.6920 o          1 R9L      -0.510500
     35 O20        -44.0270   -32.5620    -1.2780 o          1 R9L      -0.510500
@<TRIPOS>BOND
     1     1     2 1   
     2     1     3 1   
     3     1    13 1   
     4     1    33 1   
     5     2    20 1   
     6     2    21 1   
     7     2    22 1   
     8     3    19 1   
     9     3    23 1   
    10     3    24 1   
    11     4    14 ar  
    12     4    18 ar  
    13     4    19 1   
    14     5    17 ar  
    15     5    18 ar  
    16     5    25 1   
    17     6     7 ar  
    18     6    11 ar  
    19     6    15 1   
    20     7     8 ar  
    21     7    26 1   
    22     8     9 ar  
    23     8    27 1   
    24     9    10 ar  
    25     9    14 1   
    26    10    11 ar  
    27    10    16 1   
    28    11    28 1   
    29    12    14 ar  
    30    12    16 1   
    31    12    17 ar  
    32    13    20 1   
    33    13    29 1   
    34    13    30 1   
    35    16    31 1   
    36    19    32 1   
    37    20    34 2   
    38    20    35 2   
@<TRIPOS>SUBSTRUCTURE
     1 R9L         1 TEMP              0 ****  ****    0 ROOT
