@<TRIPOS>MOLECULE
R9L
   35    38     1     0     0
SMALL
No Charge or Current Charge


@<TRIPOS>ATOM
      1 C16        -43.8860   -30.8490     1.8640 cy         1 R9L      -0.065700
      2 C17        -44.9200   -31.8950     1.2480 cy         1 R9L      -0.293900
      3 C15        -44.2550   -29.3520     1.8590 c3         1 R9L       0.250800
      4 C13        -45.2990   -29.0330     4.1830 ca         1 R9L       0.431900
      5 C11        -44.0370   -29.0310     6.1130 ca         1 R9L       0.187900
      6 C02        -50.6970   -28.8410     4.7740 ca         1 R9L       0.186000
      7 C03        -50.0340   -28.8910     3.5250 ca         1 R9L      -0.166000
      8 C04        -48.6230   -28.9380     3.4600 ca         1 R9L      -0.050000
      9 C05        -47.8940   -28.9330     4.6700 cp         1 R9L      -0.064000
     10 C06        -48.5770   -28.8830     5.8810 ca         1 R9L       0.008800
     11 C07        -49.9690   -28.8360     5.9790 ca         1 R9L      -0.168000
     12 C09        -46.2950   -28.9480     6.3660 ca         1 R9L       0.204500
     13 C21        -42.9370   -31.4030     0.7100 cy         1 R9L      -0.293900
     14 C22        -46.4610   -28.9730     4.9780 cp         1 R9L      -0.252000
     15 F01        -52.0470   -28.7970     4.8110 f          1 R9L      -0.181000
     16 N08        -47.5970   -28.8930     6.8790 na         1 R9L      -0.329300
     17 N10        -45.0920   -28.9770     6.9590 nb         1 R9L      -0.235000
     18 N12        -44.0800   -29.0590     4.7590 nb         1 R9L      -0.290000
     19 N14        -45.3520   -29.0530     2.7970 nu         1 R9L      -0.922100
     20 S18        -43.9490   -32.6960    -0.0510 s6         1 R9L       1.078000
     21 H172       -45.2570   -32.6450     1.9680 h1         1 R9L       0.112200
     22 H171       -45.7950   -31.4220     0.7940 h1         1 R9L       0.112200
     23 H151       -43.3590   -28.7640     2.1050 h1         1 R9L       0.067200
     24 H152       -44.5550   -29.0840     0.8350 h1         1 R9L       0.067200
     25 H111       -43.0490   -29.0540     6.5690 h5         1 R9L       0.050100
     26 H031       -50.6190   -28.8940     2.6090 ha         1 R9L       0.135000
     27 H041       -48.1270   -28.9780     2.4950 ha         1 R9L       0.110000
     28 H071       -50.4730   -28.7980     6.9410 ha         1 R9L       0.140000
     29 H212       -42.6930   -30.6550    -0.0490 h1         1 R9L       0.112200
     30 H211       -42.0090   -31.8420     1.0850 h1         1 R9L       0.112200
     31 H081       -47.7980   -28.8630     7.8720 hn         1 R9L       0.371000
     32 H141       -46.2930   -29.0390     2.4120 hn         1 R9L       0.496000
     33 H161       -43.5400   -31.1180     2.8700 hc         1 R9L       0.098700
     34 O19        -43.5140   -34.0500     0.3160 o          1 R9L      -0.510500
     35 O20        -44.4030   -32.3420    -1.4030 o          1 R9L      -0.510500
@<TRIPOS>BOND
     1     1     2 1   
     2     1     3 1   
     3     1    13 1   
     4     1    33 1   
     5     2    20 1   
     6     2    21 1   
     7     2    22 1   
     8     3    19 1   
     9     3    23 1   
    10     3    24 1   
    11     4    14 ar  
    12     4    18 ar  
    13     4    19 1   
    14     5    17 ar  
    15     5    18 ar  
    16     5    25 1   
    17     6     7 ar  
    18     6    11 ar  
    19     6    15 1   
    20     7     8 ar  
    21     7    26 1   
    22     8     9 ar  
    23     8    27 1   
    24     9    10 ar  
    25     9    14 1   
    26    10    11 ar  
    27    10    16 1   
    28    11    28 1   
    29    12    14 ar  
    30    12    16 1   
    31    12    17 ar  
    32    13    20 1   
    33    13    29 1   
    34    13    30 1   
    35    16    31 1   
    36    19    32 1   
    37    20    34 2   
    38    20    35 2   
@<TRIPOS>SUBSTRUCTURE
     1 R9L         1 TEMP              0 ****  ****    0 ROOT
