@<TRIPOS>MOLECULE
R9M
   16    16     1     0     0
SMALL
abcg2


@<TRIPOS>ATOM
      1 C4           6.1710     6.2320    43.5680 c3         1 R9M      -0.209400
      2 C5           5.7140     4.9330    42.8680 c          1 R9M       0.722000
      3 O1           5.2930     4.0370    43.6260 o          1 R9M      -0.735000
      4 O            5.8200     4.8800    41.6270 o          1 R9M      -0.735000
      5 C3           6.4140     7.4170    42.6360 c3         1 R9M      -0.105700
      6 C2           6.8370     8.6370    43.3810 cc         1 R9M       0.493700
      7 S            8.4440     8.7870    44.0180 ss         1 R9M      -0.086400
      8 C1           8.0280    10.3070    44.6920 cc         1 R9M      -0.301000
      9 N            6.0740     9.6460    43.6600 nd         1 R9M      -0.671000
     10 C            6.7360    10.5890    44.3970 cd         1 R9M       0.274900
     11 H1           7.0890     6.0080    44.1230 hc         1 R9M       0.025200
     12 H2           5.4330     6.5060    44.3280 hc         1 R9M       0.025200
     13 H4           5.5000     7.6650    42.0930 hc         1 R9M       0.069200
     14 H5           7.1670     7.1580    41.8900 hc         1 R9M       0.069200
     15 H6           8.7340    10.9000    45.2520 h4         1 R9M       0.142000
     16 H7           6.2190    11.4890    44.7010 h4         1 R9M       0.022100
@<TRIPOS>BOND
     1     1     2 1   
     2     1     5 1   
     3     1    11 1   
     4     1    12 1   
     5     2     3 1   
     6     2     4 1   
     7     5     6 1   
     8     5    13 1   
     9     5    14 1   
    10     6     7 1   
    11     6     9 2   
    12     7     8 1   
    13     8    10 2   
    14     8    15 1   
    15     9    10 1   
    16    10    16 1   
@<TRIPOS>SUBSTRUCTURE
     1 R9M         1 TEMP              0 ****  ****    0 ROOT
