@<TRIPOS>MOLECULE
R9M
   16    16     1     0     0
SMALL
No Charge or Current Charge


@<TRIPOS>ATOM
      1 C4           6.2740     6.1360    43.6320 c3         1 R9M      -0.209400
      2 C5           5.7720     4.9280    42.8230 c          1 R9M       0.722000
      3 O1           4.5700     4.7200    42.7860 o          1 R9M      -0.735000
      4 O            6.5940     4.2700    42.2040 o          1 R9M      -0.735000
      5 C3           6.3020     7.4080    42.7410 c3         1 R9M      -0.105700
      6 C2           6.7840     8.6420    43.4580 cc         1 R9M       0.493700
      7 S            8.4920     8.9500    43.6480 ss         1 R9M      -0.086400
      8 C1           8.0640    10.4120    44.4900 cc         1 R9M      -0.301000
      9 N            5.9640     9.5500    43.9730 nd         1 R9M      -0.671000
     10 C            6.6990    10.5660    44.5670 cd         1 R9M       0.274900
     11 H1           7.3080     5.9740    43.9590 hc         1 R9M       0.025200
     12 H2           5.5820     6.3610    44.4530 hc         1 R9M       0.025200
     13 H4           5.2980     7.5910    42.3410 hc         1 R9M       0.069200
     14 H5           6.9480     7.2260    41.8730 hc         1 R9M       0.069200
     15 H6           8.8370    11.0640    44.8730 h4         1 R9M       0.142000
     16 H7           6.1840    11.3920    45.0400 h4         1 R9M       0.022100
@<TRIPOS>BOND
     1     1     2 1   
     2     1     5 1   
     3     1    11 1   
     4     1    12 1   
     5     2     3 1   
     6     2     4 1   
     7     5     6 1   
     8     5    13 1   
     9     5    14 1   
    10     6     7 1   
    11     6     9 2   
    12     7     8 1   
    13     8    10 2   
    14     8    15 1   
    15     9    10 1   
    16    10    16 1   
@<TRIPOS>SUBSTRUCTURE
     1 R9M         1 TEMP              0 ****  ****    0 ROOT
