@<TRIPOS>MOLECULE
R9O
   24    25     1     0     0
SMALL
No Charge or Current Charge


@<TRIPOS>ATOM
      1 C02          7.8030     7.5770    18.0180 cc         1 R9O      -0.226000
      2 C05          6.8280     9.1540    19.5670 cc         1 R9O       0.340700
      3 C06          6.4880    10.0460    20.7430 c3         1 R9O       0.133300
      4 C10          4.9100     6.4040    23.6670 ca         1 R9O      -0.082000
      5 C11          3.7740     6.1950    22.8670 ca         1 R9O      -0.150000
      6 C13          4.4300     8.0620    21.4460 ca         1 R9O      -0.169000
      7 S01          8.2210     8.1060    19.6210 ss         1 R9O      -0.144400
      8 C03          6.6700     8.2090    17.5340 cd         1 R9O       0.237500
      9 N04          6.1200     9.1240    18.4460 nd         1 R9O      -0.588000
     10 O07          6.4890     9.2850    21.9740 os         1 R9O      -0.333100
     11 C08          5.5790     8.2750    22.2420 ca         1 R9O       0.158100
     12 C09          5.8080     7.4400    23.3590 ca         1 R9O       0.079000
     13 C12          3.5340     7.0240    21.7590 ca         1 R9O      -0.071000
     14 C14          6.1440     7.8820    16.1380 c          1 R9O       0.632500
     15 O15          6.7350     7.0550    15.4510 o          1 R9O      -0.701000
     16 O16          5.1390     8.4550    15.7290 o          1 R9O      -0.701000
     17 Cl17         7.2270     7.6710    24.3830 cl         1 R9O      -0.204000
     18 H18          8.4150     6.8350    17.5220 h4         1 R9O       0.164000
     19 H19          7.2440    10.8390    20.7970 h1         1 R9O       0.069200
     20 H20          5.5180    10.5320    20.5810 h1         1 R9O       0.069200
     21 H24          4.2110     8.6910    20.5880 ha         1 R9O       0.146000
     22 H23          2.6510     6.8640    21.1430 ha         1 R9O       0.115000
     23 H21          5.0950     5.7630    24.5260 ha         1 R9O       0.117000
     24 H22          3.0790     5.3930    23.1070 ha         1 R9O       0.109000
@<TRIPOS>BOND
     1     1     7 1   
     2     1     8 2   
     3     1    18 1   
     4     2     3 1   
     5     2     7 1   
     6     2     9 2   
     7     3    10 1   
     8     3    19 1   
     9     3    20 1   
    10     4     5 ar  
    11     4    12 ar  
    12     4    23 1   
    13     5    13 ar  
    14     5    24 1   
    15     6    11 ar  
    16     6    13 ar  
    17     6    21 1   
    18     8     9 1   
    19     8    14 1   
    20    10    11 1   
    21    11    12 ar  
    22    12    17 1   
    23    13    22 1   
    24    14    15 1   
    25    14    16 1   
@<TRIPOS>SUBSTRUCTURE
     1 R9O         1 TEMP              0 ****  ****    0 ROOT
