@<TRIPOS>MOLECULE
R9O
   24    25     1     0     0
SMALL
abcg2


@<TRIPOS>ATOM
      1 C02          7.7030     7.4280    18.0390 cc         1 R9O      -0.226000
      2 C05          6.7090     9.0430    19.5210 cc         1 R9O       0.340700
      3 C06          6.3520     9.9160    20.6830 c3         1 R9O       0.133300
      4 C10          4.9640     6.4920    23.7420 ca         1 R9O      -0.082000
      5 C11          3.8100     6.2420    23.0120 ca         1 R9O      -0.150000
      6 C13          4.4170     7.9920    21.4680 ca         1 R9O      -0.169000
      7 S01          7.9120     7.8120    19.6920 ss         1 R9O      -0.144400
      8 C03          6.7640     8.2360    17.4720 cd         1 R9O       0.237500
      9 N04          6.2110     9.1460    18.3370 nd         1 R9O      -0.588000
     10 O07          6.4700     9.2170    21.9030 os         1 R9O      -0.333100
     11 C08          5.5720     8.2560    22.1970 ca         1 R9O       0.158100
     12 C09          5.8350     7.4850    23.3320 ca         1 R9O       0.079000
     13 C12          3.5450     6.9920    21.8780 ca         1 R9O      -0.071000
     14 C14          6.3430     8.1490    16.0150 c          1 R9O       0.632500
     15 O15          6.8910     7.2430    15.3600 o          1 R9O      -0.701000
     16 O16          5.5070     8.9810    15.6270 o          1 R9O      -0.701000
     17 CL17         7.2810     7.7860    24.2310 cl         1 R9O      -0.204000
     18 H18          8.2620     6.6320    17.5740 h4         1 R9O       0.164000
     19 H19          7.0560    10.7460    20.7610 h1         1 R9O       0.069200
     20 H20          5.3580    10.3460    20.5330 h1         1 R9O       0.069200
     21 H24          4.1780     8.5550    20.5760 ha         1 R9O       0.146000
     22 H23          2.6520     6.8050    21.2970 ha         1 R9O       0.115000
     23 H21          5.1920     5.9130    24.6270 ha         1 R9O       0.117000
     24 H22          3.1300     5.4640    23.3310 ha         1 R9O       0.109000
@<TRIPOS>BOND
     1     1     7 1   
     2     1     8 2   
     3     1    18 1   
     4     2     3 1   
     5     2     7 1   
     6     2     9 2   
     7     3    10 1   
     8     3    19 1   
     9     3    20 1   
    10     4     5 ar  
    11     4    12 ar  
    12     4    23 1   
    13     5    13 ar  
    14     5    24 1   
    15     6    11 ar  
    16     6    13 ar  
    17     6    21 1   
    18     8     9 1   
    19     8    14 1   
    20    10    11 1   
    21    11    12 ar  
    22    12    17 1   
    23    13    22 1   
    24    14    15 1   
    25    14    16 1   
@<TRIPOS>SUBSTRUCTURE
     1 R9O         1 TEMP              0 ****  ****    0 ROOT
