@<TRIPOS>MOLECULE
R9P
   50    54     1     0     0
SMALL
abcg2


@<TRIPOS>ATOM
      1 C13         -8.7460    -0.3580     0.1370 c6         1 R9P      -0.110900
      2 C14        -10.0010     0.5130     0.1050 c6         1 R9P       0.148300
      3 N3          -9.9810     1.5440    -0.9200 n7         1 R9P      -0.841400
      4 C15         -8.7870     2.3680    -0.8280 c6         1 R9P       0.148300
      5 C16         -7.4830     1.5730    -0.8260 c6         1 R9P      -0.110900
      6 C12         -7.4920     0.5050     0.2670 c6         1 R9P      -0.074700
      7 C11         -6.2380    -0.3580     0.2440 c3         1 R9P       0.219800
      8 N2          -5.0690     0.4300     0.5670 nu         1 R9P      -0.954200
      9 C10         -3.8020    -0.0440     0.5300 ca         1 R9P       0.369000
     10 C17         -2.7690     0.7000     1.1310 ca         1 R9P      -0.211000
     11 C18         -1.4640     0.2650     1.0840 ca         1 R9P       0.224000
     12 CL1         -0.2880     1.2210     1.9200 cl         1 R9P      -0.172000
     13 C9          -3.4600    -1.2530    -0.0970 ca         1 R9P      -0.203000
     14 C8          -2.1450    -1.6670    -0.1280 ca         1 R9P      -0.032000
     15 C7          -1.1070    -0.9310     0.4470 ca         1 R9P      -0.218900
     16 C6           0.2750    -1.4160     0.3550 cc         1 R9P       0.563500
     17 N4           1.2450    -0.6160     0.0370 nd         1 R9P      -0.575300
     18 C19          2.4640    -1.1930    -0.0260 cd         1 R9P       0.172400
     19 C20          3.7480    -0.6130    -0.3090 ca         1 R9P      -0.115800
     20 C21          4.1990     0.6750    -0.5860 ca         1 R9P      -0.001000
     21 C22          5.5550     0.8320    -0.7920 ca         1 R9P      -0.052900
     22 BR1          6.2370     2.5530    -1.1670 br         1 R9P      -0.092100
     23 C1           6.4510    -0.2440    -0.7320 ca         1 R9P      -0.053000
     24 C2           6.0050    -1.5250    -0.4580 ca         1 R9P      -0.113000
     25 C3           4.6470    -1.6810    -0.2490 ca         1 R9P       0.094100
     26 O1           4.0150    -2.8430     0.0400 os         1 R9P      -0.121200
     27 C4           2.7080    -2.5250     0.1720 cc         1 R9P      -0.119100
     28 C5           1.6680    -3.4420     0.5100 c          1 R9P       0.599200
     29 O2           1.7500    -4.6370     0.7220 o          1 R9P      -0.516000
     30 N1           0.4640    -2.7470     0.5950 ns         1 R9P      -0.416400
     31 H131        -8.8090    -1.0670     0.9680 hc         1 R9P       0.047950
     32 H132        -8.6900    -0.9530    -0.7830 hc         1 R9P       0.047950
     33 H141       -10.8880    -0.1080    -0.0360 h1         1 R9P       0.054950
     34 H142       -10.1160     1.0050     1.0770 h1         1 R9P       0.054950
     35 H12         -7.5390     1.0080     1.2440 hc         1 R9P       0.049700
     36 H3          -9.9980     1.0980    -1.8310 hn         1 R9P       0.404000
     37 H151        -8.7890     3.0820    -1.6530 h1         1 R9P       0.054950
     38 H152        -8.8510     2.9580     0.0940 h1         1 R9P       0.054950
     39 H161        -7.3570     1.0850    -1.8000 hc         1 R9P       0.047950
     40 H162        -6.6360     2.2520    -0.7020 hc         1 R9P       0.047950
     41 H111        -6.3490    -1.1970     0.9440 h1         1 R9P       0.045200
     42 H112        -6.1260    -0.7920    -0.7550 h1         1 R9P       0.045200
     43 H2          -5.2280     1.2100     1.1860 hn         1 R9P       0.484000
     44 H17         -3.0080     1.6220     1.6450 ha         1 R9P       0.131000
     45 H9          -4.2130    -1.8660    -0.5720 ha         1 R9P       0.124000
     46 H8          -1.9150    -2.5920    -0.6440 ha         1 R9P       0.117000
     47 H1          -0.3340    -3.2940     0.8950 hn         1 R9P       0.334500
     48 H21          3.5080     1.5060    -0.6310 ha         1 R9P       0.150000
     49 HA           7.5080    -0.0820    -0.8970 ha         1 R9P       0.133000
     50 HB           6.6950    -2.3560    -0.4090 ha         1 R9P       0.140000
@<TRIPOS>BOND
     1     1     2 1   
     2     1     6 1   
     3     1    31 1   
     4     1    32 1   
     5     2     3 1   
     6     2    33 1   
     7     2    34 1   
     8     3     4 1   
     9     3    36 1   
    10     4     5 1   
    11     4    37 1   
    12     4    38 1   
    13     5     6 1   
    14     5    39 1   
    15     5    40 1   
    16     6     7 1   
    17     6    35 1   
    18     7     8 1   
    19     7    41 1   
    20     7    42 1   
    21     8     9 1   
    22     8    43 1   
    23     9    10 ar  
    24     9    13 ar  
    25    10    11 ar  
    26    10    44 1   
    27    11    12 1   
    28    11    15 ar  
    29    13    14 ar  
    30    13    45 1   
    31    14    15 ar  
    32    14    46 1   
    33    15    16 1   
    34    16    17 2   
    35    16    30 1   
    36    17    18 1   
    37    18    19 1   
    38    18    27 2   
    39    19    20 ar  
    40    19    25 ar  
    41    20    21 ar  
    42    20    48 1   
    43    21    22 1   
    44    21    23 ar  
    45    23    24 ar  
    46    23    49 1   
    47    24    25 ar  
    48    24    50 1   
    49    25    26 1   
    50    26    27 1   
    51    27    28 1   
    52    28    29 2   
    53    28    30 1   
    54    30    47 1   
@<TRIPOS>SUBSTRUCTURE
     1 R9P         1 TEMP              0 ****  ****    0 ROOT
