@<TRIPOS>MOLECULE
R9P
   50    54     1     0     0
SMALL
No Charge or Current Charge


@<TRIPOS>ATOM
      1 C13         -8.7870    -0.3720    -0.3880 c6         1 R9P      -0.110900
      2 C14        -10.0950     0.4290    -0.1810 c6         1 R9P       0.148300
      3 N3         -10.0050     1.7640    -0.8200 n7         1 R9P      -0.841400
      4 C15         -8.8710     2.5670    -0.3030 c6         1 R9P       0.148300
      5 C16         -7.5270     1.8270    -0.5120 c6         1 R9P      -0.110900
      6 C12         -7.5520     0.4120     0.1380 c6         1 R9P      -0.074700
      7 C11         -6.2360    -0.3840    -0.1060 c3         1 R9P       0.219800
      8 N2          -5.0890     0.2260     0.5870 nu         1 R9P      -0.954200
      9 C10         -3.7640    -0.2040     0.5740 ca         1 R9P       0.369000
     10 C17         -2.7960     0.5720     1.2170 ca         1 R9P      -0.211000
     11 C18         -1.4520     0.1710     1.2240 ca         1 R9P       0.224000
     12 Cl1         -0.2960     1.1740     2.1020 cl         1 R9P      -0.172000
     13 C9          -3.3860    -1.3940    -0.0650 ca         1 R9P      -0.203000
     14 C8          -2.0430    -1.8060    -0.0620 ca         1 R9P      -0.032000
     15 C7          -1.0620    -1.0250     0.5840 ca         1 R9P      -0.218900
     16 C6           0.3310    -1.4560     0.5560 cc         1 R9P       0.563500
     17 N4           1.2750    -0.6710     0.0250 nd         1 R9P      -0.575300
     18 C19          2.5520    -1.2200     0.0600 cd         1 R9P       0.172400
     19 C20          3.7730    -0.6660    -0.4040 ca         1 R9P      -0.115800
     20 C21          4.0970     0.5500    -1.0160 ca         1 R9P      -0.001000
     21 C22          5.4540     0.7600    -1.3450 ca         1 R9P      -0.052900
     22 Br1          5.9830     2.3950    -2.1840 br         1 R9P      -0.092100
     23 C1           6.4280    -0.2300    -1.0570 ca         1 R9P      -0.053000
     24 C2           6.0560    -1.4450    -0.4370 ca         1 R9P      -0.113000
     25 C3           4.7060    -1.6360    -0.1180 ca         1 R9P       0.094100
     26 O1           4.1630    -2.7610     0.4910 os         1 R9P      -0.121200
     27 C4           2.8020    -2.4590     0.5850 cc         1 R9P      -0.119100
     28 C5           1.7680    -3.3120     1.1520 c          1 R9P       0.599200
     29 O2           1.9320    -4.4230     1.6330 o          1 R9P      -0.516000
     30 N1           0.5560    -2.7070     1.0830 ns         1 R9P      -0.416400
     31 H131        -8.8670    -1.3390     0.1280 hc         1 R9P       0.047950
     32 H132        -8.6610    -0.5990    -1.4560 hc         1 R9P       0.047950
     33 H141       -10.9420    -0.1310    -0.6070 h1         1 R9P       0.054950
     34 H142       -10.2870     0.5470     0.8960 h1         1 R9P       0.054950
     35 H12         -7.6590     0.5210     1.2260 hc         1 R9P       0.049700
     36 H3          -9.8660     1.6270    -1.8290 hn         1 R9P       0.404000
     37 H151        -8.8400     3.5400    -0.8160 h1         1 R9P       0.054950
     38 H152        -9.0180     2.7650     0.7700 h1         1 R9P       0.054950
     39 H161        -7.3180     1.7420    -1.5870 hc         1 R9P       0.047950
     40 H162        -6.7150     2.4310    -0.0850 hc         1 R9P       0.047950
     41 H111        -6.3770    -1.4110     0.2590 h1         1 R9P       0.045200
     42 H112        -6.0450    -0.4350    -1.1870 h1         1 R9P       0.045200
     43 H2          -5.2640     1.1030     1.0780 hn         1 R9P       0.484000
     44 H17         -3.0820     1.4890     1.7210 ha         1 R9P       0.131000
     45 H9          -4.1250    -2.0080    -0.5700 ha         1 R9P       0.124000
     46 H8          -1.7660    -2.7260    -0.5740 ha         1 R9P       0.117000
     47 H1          -0.2240    -3.2220     1.4620 hn         1 R9P       0.334500
     48 H21          3.3360     1.2970    -1.2290 ha         1 R9P       0.150000
     49 HA           7.4700    -0.0540    -1.3160 ha         1 R9P       0.133000
     50 HB           6.7950    -2.2100    -0.2120 ha         1 R9P       0.140000
@<TRIPOS>BOND
     1     1     2 1   
     2     1     6 1   
     3     1    31 1   
     4     1    32 1   
     5     2     3 1   
     6     2    33 1   
     7     2    34 1   
     8     3     4 1   
     9     3    36 1   
    10     4     5 1   
    11     4    37 1   
    12     4    38 1   
    13     5     6 1   
    14     5    39 1   
    15     5    40 1   
    16     6     7 1   
    17     6    35 1   
    18     7     8 1   
    19     7    41 1   
    20     7    42 1   
    21     8     9 1   
    22     8    43 1   
    23     9    10 ar  
    24     9    13 ar  
    25    10    11 ar  
    26    10    44 1   
    27    11    12 1   
    28    11    15 ar  
    29    13    14 ar  
    30    13    45 1   
    31    14    15 ar  
    32    14    46 1   
    33    15    16 1   
    34    16    17 2   
    35    16    30 1   
    36    17    18 1   
    37    18    19 1   
    38    18    27 2   
    39    19    20 ar  
    40    19    25 ar  
    41    20    21 ar  
    42    20    48 1   
    43    21    22 1   
    44    21    23 ar  
    45    23    24 ar  
    46    23    49 1   
    47    24    25 ar  
    48    24    50 1   
    49    25    26 1   
    50    26    27 1   
    51    27    28 1   
    52    28    29 2   
    53    28    30 1   
    54    30    47 1   
@<TRIPOS>SUBSTRUCTURE
     1 R9P         1 TEMP              0 ****  ****    0 ROOT
