@<TRIPOS>MOLECULE
R9Q
   35    37     1     0     0
SMALL
No Charge or Current Charge


@<TRIPOS>ATOM
      1 C4          63.9860   -39.7120    15.4920 ca         1 R9Q      -0.129000
      2 C5          63.2360   -40.6930    14.8260 ca         1 R9Q      -0.078000
      3 C6          62.0160   -41.1240    15.3700 ca         1 R9Q      -0.132000
      4 C7          61.5540   -40.5970    16.5870 ca         1 R9Q       0.138100
      5 C8          62.3040   -39.6060    17.2710 ca         1 R9Q      -0.181600
      6 C13         58.6980   -41.8770    18.5870 ca         1 R9Q      -0.093300
      7 C15         58.1200   -43.1100    18.9470 ca         1 R9Q      -0.089000
      8 C17         55.9690   -42.0210    19.2930 ca         1 R9Q      -0.067000
      9 C11         61.0360   -41.1900    19.3480 c3         1 R9Q       0.075000
     10 C12         60.1800   -41.8050    18.2200 c3         1 R9Q       0.214600
     11 C16         56.7610   -43.1820    19.2980 ca         1 R9Q      -0.116000
     12 C18         56.5360   -40.7830    18.9350 ca         1 R9Q      -0.021000
     13 C19         57.8970   -40.7150    18.5820 ca         1 R9Q      -0.034000
     14 C3          63.5190   -39.1650    16.7000 ca         1 R9Q      -0.048000
     15 C9          61.8300   -38.9690    18.5590 c          1 R9Q       0.578600
     16 N2          60.9720   -39.7130    19.3930 n          1 R9Q      -0.406800
     17 N21         55.0840   -38.6210    18.9270 n1         1 R9Q      -0.446000
     18 O10         62.1380   -37.8170    18.8410 o          1 R9Q      -0.547000
     19 O14         60.3170   -41.0000    17.0310 os         1 R9Q      -0.363100
     20 H1          64.9270   -39.3670    15.0690 ha         1 R9Q       0.121000
     21 H2          63.5930   -41.1080    13.8860 ha         1 R9Q       0.118000
     22 H3          61.4210   -41.8670    14.8440 ha         1 R9Q       0.129000
     23 H4          58.7230   -44.0160    18.9580 ha         1 R9Q       0.114000
     24 H5          54.9170   -42.0860    19.5670 ha         1 R9Q       0.128000
     25 H6          59.5730   -39.7330    20.9920 h1         1 R9Q       0.044367
     26 H7          61.1450   -38.9650    21.3680 h1         1 R9Q       0.044367
     27 H8          59.9490   -38.1160    20.3430 h1         1 R9Q       0.044367
     28 H9          60.7120   -41.6090    20.3090 h1         1 R9Q       0.062700
     29 H10         62.0810   -41.4960    19.2080 h1         1 R9Q       0.062700
     30 H11         60.5500   -42.8210    18.0280 h1         1 R9Q       0.056700
     31 H12         56.3210   -44.1370    19.5750 ha         1 R9Q       0.122000
     32 H13         58.3350   -39.7570    18.3050 ha         1 R9Q       0.147000
     33 H14         64.1110   -38.3980    17.1980 ha         1 R9Q       0.133000
     34 C1          60.3750   -39.0950    20.5970 c3         1 R9Q       0.095300
     35 C20         55.7300   -39.5940    18.9300 cg         1 R9Q       0.320000
@<TRIPOS>BOND
     1     1     2 ar  
     2     1    14 ar  
     3     1    20 1   
     4     2     3 ar  
     5     2    21 1   
     6     3     4 ar  
     7     3    22 1   
     8     4     5 ar  
     9     4    19 1   
    10     5    14 ar  
    11     5    15 1   
    12     6     7 ar  
    13     6    10 1   
    14     6    13 ar  
    15     7    11 ar  
    16     7    23 1   
    17     8    11 ar  
    18     8    12 ar  
    19     8    24 1   
    20     9    10 1   
    21     9    16 1   
    22     9    28 1   
    23     9    29 1   
    24    10    19 1   
    25    10    30 1   
    26    11    31 1   
    27    12    13 ar  
    28    12    35 1   
    29    13    32 1   
    30    14    33 1   
    31    15    16 1   
    32    15    18 2   
    33    16    34 1   
    34    17    35 3   
    35    25    34 1   
    36    26    34 1   
    37    27    34 1   
@<TRIPOS>SUBSTRUCTURE
     1 R9Q         1 TEMP              0 ****  ****    0 ROOT
