@<TRIPOS>MOLECULE
R9Q
   35    37     1     0     0
SMALL
bcc


@<TRIPOS>ATOM
      1 C4          63.9100   -39.5540    15.6470 ca         1 R9Q      -0.147000
      2 C5          63.2840   -40.5550    14.9140 ca         1 R9Q      -0.096000
      3 C6          62.0880   -41.1010    15.3560 ca         1 R9Q      -0.150000
      4 C7          61.5140   -40.6480    16.5360 ca         1 R9Q       0.138100
      5 C8          62.1350   -39.6450    17.2840 ca         1 R9Q      -0.181600
      6 C13         58.7390   -41.8290    18.5230 ca         1 R9Q      -0.093300
      7 C15         58.1880   -42.9030    19.2170 ca         1 R9Q      -0.107000
      8 C17         56.1200   -41.7180    19.5090 ca         1 R9Q      -0.085000
      9 C11         61.1150   -41.3920    19.1650 c3         1 R9Q       0.075000
     10 C12         60.1740   -41.9040    18.0780 c3         1 R9Q       0.191400
     11 C16         56.8920   -42.8490    19.7090 ca         1 R9Q      -0.134000
     12 C18         56.6680   -40.6440    18.8100 ca         1 R9Q      -0.021000
     13 C19         57.9710   -40.6920    18.3160 ca         1 R9Q      -0.052000
     14 C3          63.3280   -39.0970    16.8180 ca         1 R9Q      -0.066000
     15 C9          61.5330   -39.0860    18.5320 c          1 R9Q       0.721100
     16 N2          60.9640   -39.9690    19.3770 n          1 R9Q      -0.473800
     17 N21         55.2420   -38.5290    18.4160 n1         1 R9Q      -0.356800
     18 O10         61.5750   -37.8860    18.7650 o          1 R9Q      -0.622500
     19 O14         60.2940   -41.1380    16.8870 os         1 R9Q      -0.339900
     20 H1          64.8420   -39.1260    15.3040 ha         1 R9Q       0.139000
     21 H2          63.7270   -40.9130    13.9940 ha         1 R9Q       0.136000
     22 H3          61.5870   -41.8700    14.7820 ha         1 R9Q       0.147000
     23 H4          58.7790   -43.7980    19.3730 ha         1 R9Q       0.132000
     24 H5          55.1070   -41.6660    19.8840 ha         1 R9Q       0.146000
     25 H6          59.7990   -40.2860    21.0680 h1         1 R9Q       0.044367
     26 H7          61.0690   -39.0790    21.2920 h1         1 R9Q       0.044367
     27 H8          59.6180   -38.6850    20.3600 h1         1 R9Q       0.044367
     28 H9          60.8980   -41.9200    20.0920 h1         1 R9Q       0.062700
     29 H10         62.1500   -41.6390    18.9160 h1         1 R9Q       0.062700
     30 H11         60.4370   -42.9500    17.8740 h1         1 R9Q       0.056700
     31 H12         56.4810   -43.6940    20.2430 ha         1 R9Q       0.140000
     32 H13         58.3660   -39.8430    17.7750 ha         1 R9Q       0.165000
     33 H14         63.8060   -38.3110    17.3880 ha         1 R9Q       0.151000
     34 C1          60.3350   -39.4730    20.5870 c3         1 R9Q       0.095300
     35 C20         55.8810   -39.4720    18.5910 cg         1 R9Q       0.230800
@<TRIPOS>BOND
     1     1     2 ar  
     2     1    14 ar  
     3     1    20 1   
     4     2     3 ar  
     5     2    21 1   
     6     3     4 ar  
     7     3    22 1   
     8     4     5 ar  
     9     4    19 1   
    10     5    14 ar  
    11     5    15 1   
    12     6     7 ar  
    13     6    10 1   
    14     6    13 ar  
    15     7    11 ar  
    16     7    23 1   
    17     8    11 ar  
    18     8    12 ar  
    19     8    24 1   
    20     9    10 1   
    21     9    16 1   
    22     9    28 1   
    23     9    29 1   
    24    10    19 1   
    25    10    30 1   
    26    11    31 1   
    27    12    13 ar  
    28    12    35 1   
    29    13    32 1   
    30    14    33 1   
    31    15    16 1   
    32    15    18 2   
    33    16    34 1   
    34    17    35 3   
    35    25    34 1   
    36    26    34 1   
    37    27    34 1   
@<TRIPOS>SUBSTRUCTURE
     1 R9Q         1 TEMP              0 ****  ****    0 ROOT
