@<TRIPOS>MOLECULE
R9R
   59    63     1     0     0
SMALL
No Charge or Current Charge


@<TRIPOS>ATOM
      1 N1         -20.3880     4.9750    27.5530 ns         1 R9R      -0.171000
      2 C4         -22.5830     4.6840    28.7270 c6         1 R9R      -0.115400
      3 C5         -21.4900     4.1590    27.7700 c          1 R9R       0.596100
      4 C6         -19.1700     4.7180    26.8570 ca         1 R9R      -0.098000
      5 C7         -18.6580     3.4020    26.7390 ca         1 R9R       0.346900
      6 C8         -16.7760     4.1250    25.6020 ca         1 R9R       0.367900
      7 C10        -16.4060     6.4910    25.1020 ca         1 R9R      -0.079000
      8 C13        -18.8450     7.1210    26.3550 ca         1 R9R      -0.114000
      9 C15        -22.3530     4.0130    30.0880 ca         1 R9R      -0.048300
     10 C17        -22.4050     2.0130    31.4870 ca         1 R9R       0.129000
     11 C20        -21.8200     4.7500    31.1670 ca         1 R9R      -0.080300
     12 C21        -21.5410     6.2490    31.0350 c6         1 R9R       0.283100
     13 C22        -17.6970    10.3330    30.8070 cy         1 R9R      -0.288400
     14 S1         -18.0930    11.2770    32.2930 s6         1 R9R       1.082000
     15 O3         -17.9510    10.4900    33.5250 o          1 R9R      -0.516000
     16 C23        -19.6220    10.9180    31.4040 cy         1 R9R      -0.288400
     17 C1         -19.1120    10.1620    30.1020 cy         1 R9R       0.021000
     18 C          -19.2440    10.9360    28.7760 c3         1 R9R      -0.100100
     19 C2         -19.5400     8.6860    29.9320 c3         1 R9R      -0.312400
     20 O          -22.1410     9.0580    30.5790 o          1 R9R      -0.549000
     21 O1         -21.4930     8.8120    28.1360 o          1 R9R      -0.549000
     22 N          -21.5020     6.7570    29.6400 n3         1 R9R      -0.812500
     23 C19        -21.5850     4.1100    32.4010 ca         1 R9R      -0.098000
     24 C18        -21.8730     2.7440    32.5600 ca         1 R9R      -0.088000
     25 Cl         -22.7700     0.3040    31.6840 cl         1 R9R      -0.202000
     26 C16        -22.6450     2.6440    30.2560 ca         1 R9R      -0.086000
     27 C3         -22.6390     6.2280    28.8520 c6         1 R9R       0.244800
     28 O2         -21.6160     3.0710    27.2180 o          1 R9R      -0.569100
     29 C14        -18.4140     5.7780    26.3050 ca         1 R9R      -0.017000
     30 C12        -18.0590     8.1390    25.7870 ca         1 R9R      -0.081000
     31 C11        -16.8400     7.8250    25.1650 ca         1 R9R      -0.113000
     32 C9         -17.1930     5.4680    25.6680 ca         1 R9R      -0.097000
     33 N2         -17.4890     3.1040    26.1260 nb         1 R9R      -0.655000
     34 H1         -20.4220     5.8630    28.0410 hn         1 R9R       0.159000
     35 H2         -23.5400     4.3160    28.3360 hc         1 R9R       0.076700
     36 H3         -19.1810     2.5520    27.1740 h4         1 R9R       0.029100
     37 H4         -15.8390     3.8560    25.1150 h4         1 R9R       0.024100
     38 H5         -15.4640     6.2530    24.6130 ha         1 R9R       0.120000
     39 H6         -19.7900     7.3860    26.8160 ha         1 R9R       0.128000
     40 H7         -20.5910     6.4620    31.5450 h1         1 R9R       0.065700
     41 H8         -22.3250     6.7650    31.6090 h1         1 R9R       0.065700
     42 H9         -17.2460     9.3840    31.1060 h1         1 R9R       0.118200
     43 H10        -16.9730    10.8910    30.2090 h1         1 R9R       0.118200
     44 H11        -20.1410    11.8560    31.1890 h1         1 R9R       0.118200
     45 H12        -20.2580    10.3040    32.0460 h1         1 R9R       0.118200
     46 H13        -18.7620    11.9180    28.8450 hc         1 R9R       0.057033
     47 H14        -18.7670    10.3960    27.9500 hc         1 R9R       0.057033
     48 H15        -20.2910    11.1200    28.5100 hc         1 R9R       0.057033
     49 H16        -19.3620     8.1470    30.8660 h1         1 R9R       0.108700
     50 H17        -18.9770     8.2090    29.1240 h1         1 R9R       0.108700
     51 H18        -21.1820     4.6730    33.2410 ha         1 R9R       0.122000
     52 H19        -21.6900     2.2540    33.5120 ha         1 R9R       0.136000
     53 H20        -23.0530     2.0640    29.4320 ha         1 R9R       0.130000
     54 H21        -22.6600     6.6490    27.8360 h1         1 R9R       0.071200
     55 H22        -23.5910     6.5140    29.3270 h1         1 R9R       0.071200
     56 H23        -18.4000     9.1720    25.8230 ha         1 R9R       0.126000
     57 H24        -16.2340     8.6150    24.7260 ha         1 R9R       0.121000
     58 S          -21.2920     8.4610    29.5440 s6         1 R9R       1.266100
     59 O4         -17.6950    12.6870    32.1950 o          1 R9R      -0.516000
@<TRIPOS>BOND
     1     1     3 1   
     2     1     4 1   
     3     1    34 1   
     4     2     3 1   
     5     2     9 1   
     6     2    27 1   
     7     2    35 1   
     8     3    28 2   
     9     4     5 ar  
    10     4    29 ar  
    11     5    33 ar  
    12     5    36 1   
    13     6    32 ar  
    14     6    33 ar  
    15     6    37 1   
    16     7    31 ar  
    17     7    32 ar  
    18     7    38 1   
    19     8    29 ar  
    20     8    30 ar  
    21     8    39 1   
    22     9    11 ar  
    23     9    26 ar  
    24    10    24 ar  
    25    10    25 1   
    26    10    26 ar  
    27    11    12 1   
    28    11    23 ar  
    29    12    22 1   
    30    12    40 1   
    31    12    41 1   
    32    13    14 1   
    33    13    17 1   
    34    13    42 1   
    35    13    43 1   
    36    14    15 2   
    37    14    16 1   
    38    14    59 2   
    39    16    17 1   
    40    16    44 1   
    41    16    45 1   
    42    17    18 1   
    43    17    19 1   
    44    18    46 1   
    45    18    47 1   
    46    18    48 1   
    47    19    49 1   
    48    19    50 1   
    49    19    58 1   
    50    20    58 2   
    51    21    58 2   
    52    22    27 1   
    53    22    58 1   
    54    23    24 ar  
    55    23    51 1   
    56    24    52 1   
    57    26    53 1   
    58    27    54 1   
    59    27    55 1   
    60    29    32 ar  
    61    30    31 ar  
    62    30    56 1   
    63    31    57 1   
@<TRIPOS>SUBSTRUCTURE
     1 R9R         1 TEMP              0 ****  ****    0 ROOT
