@<TRIPOS>MOLECULE
R9R
   59    63     1     0     0
SMALL
abcg2


@<TRIPOS>ATOM
      1 N1         -20.3160     4.8590    27.1340 ns         1 R9R      -0.171000
      2 C4         -22.0600     4.8020    28.8240 c6         1 R9R      -0.115400
      3 C5         -20.5690     4.8250    28.4670 c          1 R9R       0.596100
      4 C6         -19.0040     4.9640    26.5990 ca         1 R9R      -0.098000
      5 C7         -18.1850     3.8650    26.5780 ca         1 R9R       0.346900
      6 C8         -16.4580     5.0150    25.6140 ca         1 R9R       0.367900
      7 C10        -16.6680     7.4210    25.0630 ca         1 R9R      -0.079000
      8 C13        -19.2840     7.3970    26.0890 ca         1 R9R      -0.114000
      9 C15        -22.2650     4.2530    30.2130 ca         1 R9R      -0.048300
     10 C17        -22.3840     2.3560    31.6860 ca         1 R9R       0.129000
     11 C20        -22.4710     5.1030    31.2990 ca         1 R9R      -0.080300
     12 C21        -22.5620     6.6040    31.1490 c6         1 R9R       0.283100
     13 C22        -17.4080     8.8840    30.5670 cy         1 R9R      -0.288400
     14 S1         -17.4220    10.0230    31.9640 s6         1 R9R       1.082000
     15 O3         -17.1110     9.4150    33.2420 o          1 R9R      -0.516000
     16 C23        -19.1750    10.0530    31.5530 cy         1 R9R      -0.288400
     17 C1         -18.8590     9.3470    30.1930 cy         1 R9R       0.021000
     18 C          -18.8300    10.3350    29.0300 c3         1 R9R      -0.100100
     19 C2         -19.7300     8.1210    29.9240 c3         1 R9R      -0.312400
     20 O          -21.9270     9.3960    30.5850 o          1 R9R      -0.549000
     21 O1         -21.6010     8.8220    28.1850 o          1 R9R      -0.549000
     22 N          -22.2190     7.0480    29.8000 n3         1 R9R      -0.812500
     23 C19        -22.6330     4.5560    32.5740 ca         1 R9R      -0.098000
     24 C18        -22.5880     3.1870    32.7810 ca         1 R9R      -0.088000
     25 CL         -22.3280     0.6200    31.9230 cl         1 R9R      -0.202000
     26 C16        -22.2250     2.8730    30.4130 ca         1 R9R      -0.086000
     27 C3         -22.6710     6.2030    28.7010 c6         1 R9R       0.244800
     28 O2         -19.6860     4.8410    29.3130 o          1 R9R      -0.569100
     29 C14        -18.5290     6.2020    26.0950 ca         1 R9R      -0.017000
     30 C12        -18.7370     8.5490    25.5830 ca         1 R9R      -0.081000
     31 C11        -17.4240     8.5660    25.0640 ca         1 R9R      -0.113000
     32 C9         -17.2030     6.2180    25.5780 ca         1 R9R      -0.097000
     33 N2         -16.9180     3.8810    26.0950 nb         1 R9R      -0.655000
     34 H1         -21.0960     4.9100    26.4940 hn         1 R9R       0.159000
     35 H2         -22.5680     4.1580    28.1020 hc         1 R9R       0.076700
     36 H3         -18.5470     2.9210    26.9660 h4         1 R9R       0.029100
     37 H4         -15.4440     5.0160    25.2240 h4         1 R9R       0.024100
     38 H5         -15.6580     7.4210    24.6730 ha         1 R9R       0.120000
     39 H6         -20.2820     7.4020    26.5010 ha         1 R9R       0.128000
     40 H7         -21.8930     7.0790    31.8660 h1         1 R9R       0.065700
     41 H8         -23.5780     6.9310    31.3970 h1         1 R9R       0.065700
     42 H9         -17.3550     7.8600    30.9330 h1         1 R9R       0.118200
     43 H10        -16.6320     9.0820    29.8320 h1         1 R9R       0.118200
     44 H11        -19.6040    11.0490    31.5010 h1         1 R9R       0.118200
     45 H12        -19.7220     9.4270    32.2540 h1         1 R9R       0.118200
     46 H13        -18.1280    11.1440    29.2360 hc         1 R9R       0.057033
     47 H14        -18.5150     9.8290    28.1170 hc         1 R9R       0.057033
     48 H15        -19.8140    10.7730    28.8640 hc         1 R9R       0.057033
     49 H16        -19.7280     7.4550    30.7870 h1         1 R9R       0.108700
     50 H17        -19.3660     7.5660    29.0600 h1         1 R9R       0.108700
     51 H18        -22.7930     5.2140    33.4200 ha         1 R9R       0.122000
     52 H19        -22.7080     2.7710    33.7720 ha         1 R9R       0.136000
     53 H20        -22.0660     2.2110    29.5720 ha         1 R9R       0.130000
     54 H21        -22.4060     6.6730    27.7590 h1         1 R9R       0.071200
     55 H22        -23.7600     6.1190    28.7440 h1         1 R9R       0.071200
     56 H23        -19.3170     9.4630    25.5880 ha         1 R9R       0.126000
     57 H24        -17.0160     9.4880    24.6720 ha         1 R9R       0.121000
     58 S          -21.4600     8.4670    29.5790 s6         1 R9R       1.266100
     59 O4         -16.7710    11.2780    31.6360 o          1 R9R      -0.516000
@<TRIPOS>BOND
     1     1     3 1   
     2     1     4 1   
     3     1    34 1   
     4     2     3 1   
     5     2     9 1   
     6     2    27 1   
     7     2    35 1   
     8     3    28 2   
     9     4     5 ar  
    10     4    29 ar  
    11     5    33 ar  
    12     5    36 1   
    13     6    32 ar  
    14     6    33 ar  
    15     6    37 1   
    16     7    31 ar  
    17     7    32 ar  
    18     7    38 1   
    19     8    29 ar  
    20     8    30 ar  
    21     8    39 1   
    22     9    11 ar  
    23     9    26 ar  
    24    10    24 ar  
    25    10    25 1   
    26    10    26 ar  
    27    11    12 1   
    28    11    23 ar  
    29    12    22 1   
    30    12    40 1   
    31    12    41 1   
    32    13    14 1   
    33    13    17 1   
    34    13    42 1   
    35    13    43 1   
    36    14    15 2   
    37    14    16 1   
    38    14    59 2   
    39    16    17 1   
    40    16    44 1   
    41    16    45 1   
    42    17    18 1   
    43    17    19 1   
    44    18    46 1   
    45    18    47 1   
    46    18    48 1   
    47    19    49 1   
    48    19    50 1   
    49    19    58 1   
    50    20    58 2   
    51    21    58 2   
    52    22    27 1   
    53    22    58 1   
    54    23    24 ar  
    55    23    51 1   
    56    24    52 1   
    57    26    53 1   
    58    27    54 1   
    59    27    55 1   
    60    29    32 ar  
    61    30    31 ar  
    62    30    56 1   
    63    31    57 1   
@<TRIPOS>SUBSTRUCTURE
     1 R9R         1 TEMP              0 ****  ****    0 ROOT
