@<TRIPOS>MOLECULE
R9S
   22    22     1     0     0
SMALL
No Charge or Current Charge


@<TRIPOS>ATOM
      1 C4          25.2000     2.8640    60.3970 ca         1 R9S      -0.111000
      2 C5          23.8810     2.4460    60.6330 ca         1 R9S      -0.087000
      3 C6          23.4760     1.1290    60.3300 ca         1 R9S      -0.068300
      4 C7          22.0220     0.7320    60.6100 c3         1 R9S      -0.114100
      5 C8          21.1210     1.0020    59.3980 c          1 R9S       0.604100
      6 O           20.8350     2.1230    59.0110 o          1 R9S      -0.593100
      7 N           20.6230    -0.0820    58.7640 nt         1 R9S      -0.615000
      8 C1          24.4190     0.2230    59.7770 ca         1 R9S      -0.064300
      9 C           24.0450    -1.2140    59.4230 c3         1 R9S      -0.048800
     10 C3          26.1310     1.9680    59.8530 ca         1 R9S      -0.103000
     11 C2          25.7410     0.6560    59.5450 ca         1 R9S      -0.109000
     12 H1          25.4990     3.8830    60.6350 ha         1 R9S       0.113000
     13 H2          23.1680     3.1520    61.0530 ha         1 R9S       0.111000
     14 H3          21.6420     1.3290    61.4470 hc         1 R9S       0.060200
     15 H4          21.9580    -0.3230    60.8980 hc         1 R9S       0.060200
     16 H5          20.0200     0.0480    57.9650 hn         1 R9S       0.312000
     17 H6          20.8510    -1.0090    59.0910 hn         1 R9S       0.312000
     18 H7          23.7360    -1.7750    60.3120 hc         1 R9S       0.040367
     19 H8          23.2250    -1.2440    58.6960 hc         1 R9S       0.040367
     20 H9          24.8880    -1.7550    58.9770 hc         1 R9S       0.040367
     21 H10         27.1540     2.2900    59.6680 ha         1 R9S       0.112000
     22 H11         26.4730    -0.0280    59.1220 ha         1 R9S       0.109000
@<TRIPOS>BOND
     1     1     2 ar  
     2     1    10 ar  
     3     1    12 1   
     4     2     3 ar  
     5     2    13 1   
     6     3     4 1   
     7     3     8 ar  
     8     4     5 1   
     9     4    14 1   
    10     4    15 1   
    11     5     6 2   
    12     5     7 1   
    13     7    16 1   
    14     7    17 1   
    15     8     9 1   
    16     8    11 ar  
    17     9    18 1   
    18     9    19 1   
    19     9    20 1   
    20    10    11 ar  
    21    10    21 1   
    22    11    22 1   
@<TRIPOS>SUBSTRUCTURE
     1 R9S         1 TEMP              0 ****  ****    0 ROOT
