@<TRIPOS>MOLECULE
R9S
   22    22     1     0     0
SMALL
bcc


@<TRIPOS>ATOM
      1 C4          25.2210     2.8520    60.5470 ca         1 R9S      -0.129000
      2 C5          23.9170     2.4120    60.7300 ca         1 R9S      -0.105000
      3 C6          23.5170     1.1480    60.3130 ca         1 R9S      -0.068300
      4 C7          22.0960     0.7080    60.5170 c3         1 R9S      -0.114100
      5 C8          21.2780     0.7960    59.2370 c          1 R9S       0.671100
      6 O           21.4260     1.7120    58.4440 o          1 R9S      -0.593100
      7 N           20.3780    -0.1830    59.0690 nt         1 R9S      -0.682000
      8 C1          24.4450     0.3000    59.6920 ca         1 R9S      -0.064300
      9 C           24.0520    -1.0710    59.2200 c3         1 R9S      -0.048800
     10 C3          26.1420     2.0160    59.9350 ca         1 R9S      -0.121000
     11 C2          25.7500     0.7520    59.5150 ca         1 R9S      -0.127000
     12 H1          25.5120     3.8390    60.8830 ha         1 R9S       0.131000
     13 H2          23.1960     3.0600    61.2150 ha         1 R9S       0.129000
     14 H3          21.6080     1.3620    61.2460 hc         1 R9S       0.060200
     15 H4          22.0500    -0.2990    60.9370 hc         1 R9S       0.060200
     16 H5          19.7620    -0.1820    58.2730 hn         1 R9S       0.312000
     17 H6          20.2780    -0.9330    59.7310 hn         1 R9S       0.312000
     18 H7          23.6270    -1.6730    60.0250 hc         1 R9S       0.040367
     19 H8          23.3040    -1.0310    58.4260 hc         1 R9S       0.040367
     20 H9          24.9130    -1.6100    58.8260 hc         1 R9S       0.040367
     21 H10         27.1640     2.3410    59.7860 ha         1 R9S       0.130000
     22 H11         26.4730     0.1000    59.0390 ha         1 R9S       0.127000
@<TRIPOS>BOND
     1     1     2 ar  
     2     1    10 ar  
     3     1    12 1   
     4     2     3 ar  
     5     2    13 1   
     6     3     4 1   
     7     3     8 ar  
     8     4     5 1   
     9     4    14 1   
    10     4    15 1   
    11     5     6 2   
    12     5     7 1   
    13     7    16 1   
    14     7    17 1   
    15     8     9 1   
    16     8    11 ar  
    17     9    18 1   
    18     9    19 1   
    19     9    20 1   
    20    10    11 ar  
    21    10    21 1   
    22    11    22 1   
@<TRIPOS>SUBSTRUCTURE
     1 R9S         1 TEMP              0 ****  ****    0 ROOT
