@<TRIPOS>MOLECULE
R9T
   50    52     1     0     0
SMALL
No Charge or Current Charge


@<TRIPOS>ATOM
      1 O19         -4.4950     2.2360     0.8730 os         1 R9T      -0.321100
      2 O18         -6.0390     0.0280     0.3780 os         1 R9T      -0.320100
      3 O22          5.1350    -1.0710     1.5530 os         1 R9T      -0.323100
      4 O23          6.1720     0.4600    -0.4730 os         1 R9T      -0.322100
      5 N10          0.1360    -1.5410    -0.9060 n7         1 R9T      -0.846400
      6 C9          -0.3530    -0.1590    -0.6700 c6         1 R9T       0.222800
      7 C8          -1.8800    -0.1220    -0.3810 ca         1 R9T      -0.107300
      8 C3          -2.6970    -1.2430    -0.6680 ca         1 R9T      -0.071300
      9 C2          -2.0950    -2.5190    -1.2600 c6         1 R9T      -0.069100
     10 C1          -0.6980    -2.2870    -1.8630 c6         1 R9T       0.155800
     11 C11          0.5060     0.4740     0.4750 c3         1 R9T      -0.027100
     12 C7          -2.4920     1.0510     0.1180 ca         1 R9T      -0.165000
     13 C12          2.0120     0.4650     0.2170 ca         1 R9T      -0.065300
     14 C4          -4.0790    -1.2040    -0.4100 ca         1 R9T      -0.169000
     15 C6          -3.8810     1.0970     0.3740 ca         1 R9T       0.111100
     16 C5          -4.6790    -0.0400     0.1160 ca         1 R9T       0.115100
     17 C13          2.8710    -0.3120     1.0170 ca         1 R9T      -0.155000
     18 C17          2.5530     1.2510    -0.8170 ca         1 R9T      -0.106000
     19 C14          4.2660    -0.3140     0.7830 ca         1 R9T       0.112100
     20 C16          3.9360     1.2590    -1.0590 ca         1 R9T      -0.167000
     21 C15          4.8020     0.4770    -0.2620 ca         1 R9T       0.109100
     22 C21         -3.7700     3.4400     1.1760 c3         1 R9T       0.144900
     23 C20         -6.9270    -1.0790     0.1440 c3         1 R9T       0.145900
     24 C24          4.6830    -1.9080     2.6320 c3         1 R9T       0.146900
     25 C25          6.8030     1.2300    -1.5110 c3         1 R9T       0.145900
     26 H1           0.1110    -2.0400    -0.0110 hn         1 R9T       0.406000
     27 H3          -0.1790     0.4330    -1.5830 h1         1 R9T       0.073700
     28 H4          -2.0300    -3.2830    -0.4730 hc         1 R9T       0.050200
     29 H5          -2.7590    -2.9290    -2.0340 hc         1 R9T       0.050200
     30 H6          -0.7840    -1.7220    -2.8040 h1         1 R9T       0.056200
     31 H7          -0.2320    -3.2570    -2.0960 h1         1 R9T       0.056200
     32 H8           0.2120     1.5160     0.6340 hc         1 R9T       0.048200
     33 H9           0.2800    -0.0380     1.4180 hc         1 R9T       0.048200
     34 H10         -1.8840     1.9310     0.2930 ha         1 R9T       0.117000
     35 H11         -4.6730    -2.0860    -0.6300 ha         1 R9T       0.117000
     36 H12          2.4400    -0.9110     1.8130 ha         1 R9T       0.114000
     37 H13          1.8980     1.8600    -1.4360 ha         1 R9T       0.109000
     38 H14          4.3150     1.8780    -1.8670 ha         1 R9T       0.117000
     39 H15         -3.0020     3.2530     1.9380 h1         1 R9T       0.039033
     40 H16         -3.2850     3.8400     0.2760 h1         1 R9T       0.039033
     41 H17         -4.4520     4.2070     1.5620 h1         1 R9T       0.039033
     42 H18         -6.6320    -1.9500     0.7430 h1         1 R9T       0.039033
     43 H19         -7.9530    -0.8070     0.4230 h1         1 R9T       0.039033
     44 H20         -6.9270    -1.3620    -0.9170 h1         1 R9T       0.039033
     45 H21          5.5350    -2.4150     3.1020 h1         1 R9T       0.038033
     46 H22          4.1770    -1.3110     3.4020 h1         1 R9T       0.038033
     47 H23          3.9890    -2.6750     2.2670 h1         1 R9T       0.038033
     48 H24          7.8880     1.0680    -1.4980 h1         1 R9T       0.038033
     49 H25          6.4270     0.9360    -2.4990 h1         1 R9T       0.038033
     50 H26          6.6190     2.3030    -1.3680 h1         1 R9T       0.038033
@<TRIPOS>BOND
     1     1    15 1   
     2     1    22 1   
     3     2    16 1   
     4     2    23 1   
     5     3    19 1   
     6     3    24 1   
     7     4    21 1   
     8     4    25 1   
     9     5     6 1   
    10     5    10 1   
    11     5    26 1   
    12     6     7 1   
    13     6    11 1   
    14     6    27 1   
    15     7     8 ar  
    16     7    12 ar  
    17     8     9 1   
    18     8    14 ar  
    19     9    10 1   
    20     9    28 1   
    21     9    29 1   
    22    10    30 1   
    23    10    31 1   
    24    11    13 1   
    25    11    32 1   
    26    11    33 1   
    27    12    15 ar  
    28    12    34 1   
    29    13    17 ar  
    30    13    18 ar  
    31    14    16 ar  
    32    14    35 1   
    33    15    16 ar  
    34    17    19 ar  
    35    17    36 1   
    36    18    20 ar  
    37    18    37 1   
    38    19    21 ar  
    39    20    21 ar  
    40    20    38 1   
    41    22    39 1   
    42    22    40 1   
    43    22    41 1   
    44    23    42 1   
    45    23    43 1   
    46    23    44 1   
    47    24    45 1   
    48    24    46 1   
    49    24    47 1   
    50    25    48 1   
    51    25    49 1   
    52    25    50 1   
@<TRIPOS>SUBSTRUCTURE
     1 R9T         1 TEMP              0 ****  ****    0 ROOT
