@<TRIPOS>MOLECULE
R9T
   50    52     1     0     0
SMALL
bcc


@<TRIPOS>ATOM
      1 O19         -4.4240     2.3280     0.3990 os         1 R9T      -0.297900
      2 O18         -5.9130     0.2260     0.2780 os         1 R9T      -0.296900
      3 O22          5.0900    -1.2970     1.0760 os         1 R9T      -0.299900
      4 O23          6.0210     0.5940    -0.4050 os         1 R9T      -0.298900
      5 N10          0.1800    -1.6270    -0.7340 n7         1 R9T      -0.791200
      6 C9          -0.3230    -0.2780    -0.5420 c6         1 R9T       0.222800
      7 C8          -1.8260    -0.1990    -0.3180 ca         1 R9T      -0.107300
      8 C3          -2.6340    -1.3210    -0.4190 ca         1 R9T      -0.071300
      9 C2          -2.0570    -2.6600    -0.7930 c6         1 R9T      -0.069100
     10 C1          -0.7170    -2.4760    -1.4920 c6         1 R9T       0.155800
     11 C11          0.4590     0.3740     0.6090 c3         1 R9T      -0.027100
     12 C7          -2.4220     1.0440    -0.0620 ca         1 R9T      -0.183000
     13 C12          1.9350     0.4640     0.3380 ca         1 R9T      -0.065300
     14 C4          -4.0140    -1.1960    -0.2150 ca         1 R9T      -0.187000
     15 C6          -3.7820     1.1710     0.1390 ca         1 R9T       0.111100
     16 C5          -4.5970     0.0230     0.0700 ca         1 R9T       0.115100
     17 C13          2.8180    -0.4820     0.8660 ca         1 R9T      -0.173000
     18 C17          2.4480     1.4760    -0.4530 ca         1 R9T      -0.124000
     19 C14          4.1770    -0.4230     0.6060 ca         1 R9T       0.112100
     20 C16          3.8140     1.5510    -0.7250 ca         1 R9T      -0.185000
     21 C15          4.6870     0.6100    -0.2050 ca         1 R9T       0.109100
     22 C21         -3.6520     3.5050     0.5140 c3         1 R9T       0.121700
     23 C20         -6.7780    -0.8860     0.1910 c3         1 R9T       0.122700
     24 C24          4.6400    -2.3530     1.8980 c3         1 R9T       0.123700
     25 C25          6.5830     1.6180    -1.1980 c3         1 R9T       0.122700
     26 H1           0.3420    -2.0560     0.1710 hn         1 R9T       0.350800
     27 H3          -0.0970     0.2930    -1.4540 h1         1 R9T       0.073700
     28 H4          -1.9210    -3.2830     0.0990 hc         1 R9T       0.050200
     29 H5          -2.7570    -3.2000    -1.4360 hc         1 R9T       0.050200
     30 H6          -0.8720    -2.0270    -2.4780 h1         1 R9T       0.056200
     31 H7          -0.2360    -3.4420    -1.6580 h1         1 R9T       0.056200
     32 H8           0.0690     1.3750     0.7930 hc         1 R9T       0.048200
     33 H9           0.2730    -0.1990     1.5240 hc         1 R9T       0.048200
     34 H10         -1.7960     1.9270    -0.0340 ha         1 R9T       0.135000
     35 H11         -4.6270    -2.0860    -0.2980 ha         1 R9T       0.135000
     36 H12          2.4190    -1.2710     1.4910 ha         1 R9T       0.132000
     37 H13          1.7910     2.2290    -0.8710 ha         1 R9T       0.127000
     38 H14          4.1790     2.3610    -1.3420 ha         1 R9T       0.135000
     39 H15         -2.9070     3.4290     1.3110 h1         1 R9T       0.039033
     40 H16         -3.1400     3.7530    -0.4200 h1         1 R9T       0.039033
     41 H17         -4.3450     4.3080     0.7560 h1         1 R9T       0.039033
     42 H18         -6.5430    -1.6490     0.9370 h1         1 R9T       0.039033
     43 H19         -7.7820    -0.5120     0.3770 h1         1 R9T       0.039033
     44 H20         -6.7540    -1.3480    -0.8000 h1         1 R9T       0.039033
     45 H21          5.5190    -2.9370     2.1590 h1         1 R9T       0.038033
     46 H22          4.1740    -1.9880     2.8180 h1         1 R9T       0.038033
     47 H23          3.9280    -3.0020     1.3800 h1         1 R9T       0.038033
     48 H24          7.6540     1.4280    -1.2360 h1         1 R9T       0.038033
     49 H25          6.1890     1.6110    -2.2180 h1         1 R9T       0.038033
     50 H26          6.4190     2.6090    -0.7660 h1         1 R9T       0.038033
@<TRIPOS>BOND
     1     1    15 1   
     2     1    22 1   
     3     2    16 1   
     4     2    23 1   
     5     3    19 1   
     6     3    24 1   
     7     4    21 1   
     8     4    25 1   
     9     5     6 1   
    10     5    10 1   
    11     5    26 1   
    12     6     7 1   
    13     6    11 1   
    14     6    27 1   
    15     7     8 ar  
    16     7    12 ar  
    17     8     9 1   
    18     8    14 ar  
    19     9    10 1   
    20     9    28 1   
    21     9    29 1   
    22    10    30 1   
    23    10    31 1   
    24    11    13 1   
    25    11    32 1   
    26    11    33 1   
    27    12    15 ar  
    28    12    34 1   
    29    13    17 ar  
    30    13    18 ar  
    31    14    16 ar  
    32    14    35 1   
    33    15    16 ar  
    34    17    19 ar  
    35    17    36 1   
    36    18    20 ar  
    37    18    37 1   
    38    19    21 ar  
    39    20    21 ar  
    40    20    38 1   
    41    22    39 1   
    42    22    40 1   
    43    22    41 1   
    44    23    42 1   
    45    23    43 1   
    46    23    44 1   
    47    24    45 1   
    48    24    46 1   
    49    24    47 1   
    50    25    48 1   
    51    25    49 1   
    52    25    50 1   
@<TRIPOS>SUBSTRUCTURE
     1 R9T         1 TEMP              0 ****  ****    0 ROOT
