@<TRIPOS>MOLECULE
R9U
   43    46     1     0     0
SMALL
abcg2


@<TRIPOS>ATOM
      1 C16        -49.0350   -29.4420     3.6550 ca         1 R9U      -0.031000
      2 C15        -50.3880   -29.3120     3.9130 ca         1 R9U      -0.175000
      3 C14        -50.8110   -28.9980     5.2000 ca         1 R9U       0.201000
      4 C13        -49.9480   -28.7850     6.2530 ca         1 R9U      -0.182000
      5 C12        -48.5950   -28.9140     5.9680 ca         1 R9U       0.010800
      6 C11        -48.1150   -29.2650     4.6870 cp         1 R9U      -0.072000
      7 C10        -46.6780   -29.2790     4.7950 cp         1 R9U      -0.196000
      8 C19        -46.3730   -28.8840     6.1090 ca         1 R9U       0.184500
      9 C01        -43.8960   -25.2020    -0.4500 c3         1 R9U      -0.372100
     10 C05        -45.6600   -28.7440    -0.0530 c          1 R9U       0.609100
     11 C06        -44.9800   -30.0460     0.3840 c6         1 R9U       0.094300
     12 C07        -44.5170   -29.9720     1.8390 c6         1 R9U       0.174800
     13 C09        -45.5670   -29.5150     3.9740 ca         1 R9U       0.402900
     14 C21        -44.2060   -28.8330     5.6880 ca         1 R9U       0.175900
     15 C23        -46.4230   -31.2440     2.4890 c6         1 R9U       0.158800
     16 C24        -46.8650   -31.3400     1.0450 c6         1 R9U       0.148600
     17 F17        -52.1290   -28.8810     5.4240 f          1 R9U      -0.175000
     18 N04        -44.8200   -27.6600    -0.0710 ns         1 R9U      -0.583300
     19 N08        -45.6860   -30.0000     2.6940 nh         1 R9U      -0.749300
     20 N18        -47.5260   -28.7060     6.8030 na         1 R9U      -0.324300
     21 N20        -45.1560   -28.6670     6.5910 nb         1 R9U      -0.217000
     22 N22        -44.3450   -29.2450     4.4340 nb         1 R9U      -0.283000
     23 O03        -45.7470   -26.2510    -2.0100 o          1 R9U      -0.507000
     24 O25        -45.7910   -31.1540     0.1370 os         1 R9U      -0.427000
     25 O26        -46.8220   -28.6540    -0.3680 o          1 R9U      -0.527100
     26 O27        -46.3690   -25.6760     0.3390 o          1 R9U      -0.507000
     27 S02        -45.3810   -26.1540    -0.6100 s6         1 R9U       1.211800
     28 H161       -48.7130   -29.6540     2.6450 ha         1 R9U       0.131000
     29 H151       -51.1150   -29.4450     3.1230 ha         1 R9U       0.138000
     30 H131       -50.3090   -28.5190     7.2370 ha         1 R9U       0.138000
     31 H013       -43.5740   -25.1960     0.5890 h1         1 R9U       0.106700
     32 H012       -43.1220   -25.6090    -1.0970 h1         1 R9U       0.106700
     33 H011       -44.1470   -24.1900    -0.7670 h1         1 R9U       0.106700
     34 H061       -44.0890   -30.1690    -0.2420 h1         1 R9U       0.087700
     35 H072       -43.8500   -30.8210     2.0380 h1         1 R9U       0.066200
     36 H071       -43.9380   -29.0680     2.0140 h1         1 R9U       0.066200
     37 H211       -43.1920   -28.6260     6.0110 h5         1 R9U       0.049100
     38 H232       -47.2970   -31.2970     3.1340 h1         1 R9U       0.059200
     39 H231       -45.7780   -32.0930     2.7500 h1         1 R9U       0.059200
     40 H241       -47.6660   -30.6240     0.8520 h1         1 R9U       0.070200
     41 H242       -47.2580   -32.3390     0.8540 h1         1 R9U       0.070200
     42 H041       -43.8170   -27.7810     0.0140 hn         1 R9U       0.329500
     43 H181       -47.5800   -28.3960     7.7610 hn         1 R9U       0.370000
@<TRIPOS>BOND
     1     1     2 ar  
     2     1     6 ar  
     3     1    28 1   
     4     2     3 ar  
     5     2    29 1   
     6     3     4 ar  
     7     3    17 1   
     8     4     5 ar  
     9     4    30 1   
    10     5     6 ar  
    11     5    20 1   
    12     6     7 1   
    13     7     8 ar  
    14     7    13 ar  
    15     8    20 1   
    16     8    21 ar  
    17     9    27 1   
    18     9    31 1   
    19     9    32 1   
    20     9    33 1   
    21    10    11 1   
    22    10    18 1   
    23    10    25 2   
    24    11    12 1   
    25    11    24 1   
    26    11    34 1   
    27    12    19 1   
    28    12    35 1   
    29    12    36 1   
    30    13    19 1   
    31    13    22 ar  
    32    14    21 ar  
    33    14    22 ar  
    34    14    37 1   
    35    15    16 1   
    36    15    19 1   
    37    15    38 1   
    38    15    39 1   
    39    16    24 1   
    40    16    40 1   
    41    16    41 1   
    42    18    27 1   
    43    18    42 1   
    44    20    43 1   
    45    23    27 2   
    46    26    27 2   
@<TRIPOS>SUBSTRUCTURE
     1 R9U         1 TEMP              0 ****  ****    0 ROOT
