@<TRIPOS>MOLECULE
R9U
   43    46     1     0     0
SMALL
No Charge or Current Charge


@<TRIPOS>ATOM
      1 C16        -48.3750   -28.8680     3.1480 ca         1 R9U      -0.031000
      2 C15        -49.6830   -28.3430     3.0510 ca         1 R9U      -0.175000
      3 C14        -50.3460   -27.8450     4.1970 ca         1 R9U       0.201000
      4 C13        -49.7180   -27.8540     5.4580 ca         1 R9U      -0.182000
      5 C12        -48.4270   -28.3840     5.5210 ca         1 R9U       0.010800
      6 C11        -47.7580   -28.8930     4.4150 cp         1 R9U      -0.072000
      7 C10        -46.4360   -29.3280     4.8620 cp         1 R9U      -0.196000
      8 C19        -46.3050   -29.0540     6.2270 ca         1 R9U       0.184500
      9 C01        -45.5910   -25.4740    -0.6490 c3         1 R9U      -0.372100
     10 C05        -45.3700   -28.8420    -0.0080 c          1 R9U       0.609100
     11 C06        -44.5540   -30.0860     0.4780 c6         1 R9U       0.094300
     12 C07        -44.1510   -30.0750     1.9800 c6         1 R9U       0.174800
     13 C09        -45.3390   -29.9080     4.1900 ca         1 R9U       0.402900
     14 C21        -44.1760   -29.8490     6.1880 ca         1 R9U       0.175900
     15 C23        -46.1290   -31.5100     2.4490 c6         1 R9U       0.158800
     16 C24        -46.4040   -31.5870     0.9140 c6         1 R9U       0.148600
     17 F17        -51.5940   -27.3420     4.0790 f          1 R9U      -0.175000
     18 N04        -45.3820   -27.7450     0.8080 ns         1 R9U      -0.583300
     19 N08        -45.3590   -30.2810     2.8330 nh         1 R9U      -0.749300
     20 N18        -47.5390   -28.4990     6.5970 na         1 R9U      -0.324300
     21 N20        -45.1810   -29.3070     6.9140 nb         1 R9U      -0.217000
     22 N22        -44.1980   -30.1620     4.8690 nb         1 R9U      -0.283000
     23 O03        -47.6860   -26.7990     0.2610 o          1 R9U      -0.507000
     24 O25        -45.1910   -31.3550     0.1490 os         1 R9U      -0.427000
     25 O26        -46.0160   -28.8720    -1.0460 o          1 R9U      -0.527100
     26 O27        -46.1670   -25.6220     1.9220 o          1 R9U      -0.507000
     27 S02        -46.3450   -26.3870     0.6860 s6         1 R9U       1.211800
     28 H161       -47.8580   -29.2310     2.2660 ha         1 R9U       0.131000
     29 H151       -50.1820   -28.3110     2.0860 ha         1 R9U       0.138000
     30 H131       -50.2170   -27.4590     6.3390 ha         1 R9U       0.138000
     31 H013       -44.5540   -25.2680    -0.3640 h1         1 R9U       0.106700
     32 H012       -45.6420   -26.0990    -1.5470 h1         1 R9U       0.106700
     33 H011       -46.1610   -24.5490    -0.7760 h1         1 R9U       0.106700
     34 H061       -43.6210   -30.0280    -0.0980 h1         1 R9U       0.087700
     35 H072       -43.4270   -30.8850     2.1550 h1         1 R9U       0.066200
     36 H071       -43.6400   -29.1340     2.2300 h1         1 R9U       0.066200
     37 H211       -43.2520   -30.0610     6.7220 h5         1 R9U       0.049100
     38 H232       -47.0910   -31.5400     2.9800 h1         1 R9U       0.059200
     39 H231       -45.5670   -32.4070     2.7500 h1         1 R9U       0.059200
     40 H241       -47.1600   -30.8400     0.6330 h1         1 R9U       0.070200
     41 H242       -46.8070   -32.5780     0.6590 h1         1 R9U       0.070200
     42 H041       -44.9220   -27.7850     1.7020 hn         1 R9U       0.329500
     43 H181       -47.7530   -28.2070     7.5430 hn         1 R9U       0.370000
@<TRIPOS>BOND
     1     1     2 ar  
     2     1     6 ar  
     3     1    28 1   
     4     2     3 ar  
     5     2    29 1   
     6     3     4 ar  
     7     3    17 1   
     8     4     5 ar  
     9     4    30 1   
    10     5     6 ar  
    11     5    20 1   
    12     6     7 1   
    13     7     8 ar  
    14     7    13 ar  
    15     8    20 1   
    16     8    21 ar  
    17     9    27 1   
    18     9    31 1   
    19     9    32 1   
    20     9    33 1   
    21    10    11 1   
    22    10    18 1   
    23    10    25 2   
    24    11    12 1   
    25    11    24 1   
    26    11    34 1   
    27    12    19 1   
    28    12    35 1   
    29    12    36 1   
    30    13    19 1   
    31    13    22 ar  
    32    14    21 ar  
    33    14    22 ar  
    34    14    37 1   
    35    15    16 1   
    36    15    19 1   
    37    15    38 1   
    38    15    39 1   
    39    16    24 1   
    40    16    40 1   
    41    16    41 1   
    42    18    27 1   
    43    18    42 1   
    44    20    43 1   
    45    23    27 2   
    46    26    27 2   
@<TRIPOS>SUBSTRUCTURE
     1 R9U         1 TEMP              0 ****  ****    0 ROOT
