@<TRIPOS>MOLECULE
R9V
   35    37     1     0     0
SMALL
bcc


@<TRIPOS>ATOM
      1 C4          20.5680    -1.4950    54.5520 ca         1 R9V      -0.118000
      2 C5          21.9080    -1.1280    54.5800 ca         1 R9V      -0.133000
      3 C6          18.5580    -2.6440    55.5450 c3         1 R9V       0.209100
      4 C7          16.5780    -3.1330    56.8800 c5         1 R9V       0.163500
      5 C8          15.6530    -2.1340    56.1500 c5         1 R9V      -0.100400
      6 C9          16.3450    -0.7740    56.3740 c5         1 R9V      -0.100400
      7 C10         17.6000    -1.1360    57.2000 c5         1 R9V       0.163500
      8 C11         17.3630    -1.1120    58.7070 c6         1 R9V      -0.078400
      9 C12         16.2230    -2.0320    59.1570 c6         1 R9V       0.153100
     10 C13         16.2180    -3.3300    58.3520 c6         1 R9V      -0.078400
     11 O           14.9480    -1.4250    59.0200 oh         1 R9V      -0.602800
     12 N           17.9050    -2.5200    56.8330 n3         1 R9V      -0.704600
     13 C3          20.0010    -2.2110    55.6020 ca         1 R9V      -0.085300
     14 C2          20.8020    -2.5430    56.6920 ca         1 R9V      -0.118000
     15 C1          22.1400    -2.1780    56.7250 ca         1 R9V      -0.133000
     16 C           22.7000    -1.4690    55.6680 ca         1 R9V      -0.129000
     17 H1          19.9540    -1.2140    53.7030 ha         1 R9V       0.135500
     18 H2          22.3300    -0.5700    53.7540 ha         1 R9V       0.128000
     19 H3          18.0540    -2.0960    54.7330 h1         1 R9V       0.040200
     20 H4          18.5180    -3.7000    55.2580 h1         1 R9V       0.040200
     21 H5          16.6000    -4.1090    56.3900 h1         1 R9V       0.064200
     22 H6          14.6320    -2.1610    56.5260 hc         1 R9V       0.048700
     23 H7          15.6070    -2.3750    55.0860 hc         1 R9V       0.048700
     24 H8          16.6320    -0.3220    55.4240 hc         1 R9V       0.048700
     25 H9          15.7080    -0.0530    56.8850 hc         1 R9V       0.048700
     26 H10         18.4480    -0.4860    56.9690 h1         1 R9V       0.064200
     27 H11         18.2870    -1.4360    59.1940 hc         1 R9V       0.051450
     28 H12         17.1760    -0.0890    59.0510 hc         1 R9V       0.051450
     29 H13         16.3890    -2.2830    60.2140 h1         1 R9V       0.027700
     30 H14         15.2440    -3.8170    58.4480 hc         1 R9V       0.051450
     31 H15         16.9530    -4.0120    58.7870 hc         1 R9V       0.051450
     32 H16         14.9760    -0.5720    59.4630 ho         1 R9V       0.398000
     33 H18         20.3650    -3.0800    57.5240 ha         1 R9V       0.135500
     34 H19         22.7500    -2.4460    57.5790 ha         1 R9V       0.128000
     35 H20         23.7430    -1.1820    55.6950 ha         1 R9V       0.128000
@<TRIPOS>BOND
     1     1     2 ar  
     2     1    13 ar  
     3     1    17 1   
     4     2    16 ar  
     5     2    18 1   
     6     3    12 1   
     7     3    13 1   
     8     3    19 1   
     9     3    20 1   
    10     4     5 1   
    11     4    10 1   
    12     4    12 1   
    13     4    21 1   
    14     5     6 1   
    15     5    22 1   
    16     5    23 1   
    17     6     7 1   
    18     6    24 1   
    19     6    25 1   
    20     7     8 1   
    21     7    12 1   
    22     7    26 1   
    23     8     9 1   
    24     8    27 1   
    25     8    28 1   
    26     9    10 1   
    27     9    11 1   
    28     9    29 1   
    29    10    30 1   
    30    10    31 1   
    31    11    32 1   
    32    13    14 ar  
    33    14    15 ar  
    34    14    33 1   
    35    15    16 ar  
    36    15    34 1   
    37    16    35 1   
@<TRIPOS>SUBSTRUCTURE
     1 R9V         1 TEMP              0 ****  ****    0 ROOT
