@<TRIPOS>MOLECULE
R9V
   35    37     1     0     0
SMALL
No Charge or Current Charge


@<TRIPOS>ATOM
      1 C4          20.3950    -1.2650    54.7900 ca         1 R9V      -0.100000
      2 C5          21.7030    -0.7490    54.8030 ca         1 R9V      -0.115000
      3 C6          18.6290    -2.9030    55.6220 c3         1 R9V       0.209100
      4 C7          16.5100    -3.1870    56.9390 c5         1 R9V       0.163500
      5 C8          15.7040    -2.1820    56.0540 c5         1 R9V      -0.100400
      6 C9          16.4790    -0.8280    56.2150 c5         1 R9V      -0.100400
      7 C10         17.6540    -1.1810    57.1820 c5         1 R9V       0.163500
      8 C11         17.3390    -1.0520    58.7030 c6         1 R9V      -0.078400
      9 C12         16.1170    -1.8890    59.1600 c6         1 R9V       0.176300
     10 C13         16.0820    -3.2590    58.4360 c6         1 R9V      -0.078400
     11 O           14.8890    -1.1710    58.9710 oh         1 R9V      -0.665000
     12 N           17.8830    -2.6200    56.8780 n3         1 R9V      -0.704600
     13 C3          20.0480    -2.3420    55.6310 ca         1 R9V      -0.085300
     14 C2          21.0230    -2.8940    56.4850 ca         1 R9V      -0.100000
     15 C1          22.3300    -2.3780    56.4970 ca         1 R9V      -0.115000
     16 C           22.6710    -1.3050    55.6560 ca         1 R9V      -0.111000
     17 H1          19.6510    -0.8260    54.1290 ha         1 R9V       0.117500
     18 H2          21.9660     0.0830    54.1530 ha         1 R9V       0.110000
     19 H3          18.0960    -2.5080    54.7470 h1         1 R9V       0.040200
     20 H4          18.6970    -3.9900    55.4780 h1         1 R9V       0.040200
     21 H5          16.4640    -4.2060    56.5280 h1         1 R9V       0.064200
     22 H6          14.6560    -2.1070    56.3640 hc         1 R9V       0.048700
     23 H7          15.6950    -2.5020    55.0060 hc         1 R9V       0.048700
     24 H8          16.8590    -0.4800    55.2480 hc         1 R9V       0.048700
     25 H9          15.8470    -0.0250    56.6080 hc         1 R9V       0.048700
     26 H10         18.5390    -0.5610    56.9750 h1         1 R9V       0.064200
     27 H11         18.2230    -1.3850    59.2650 hc         1 R9V       0.051450
     28 H12         17.2000     0.0040    58.9680 hc         1 R9V       0.051450
     29 H13         16.2290    -2.0860    60.2370 h1         1 R9V       0.027700
     30 H14         15.0820    -3.7040    58.5170 hc         1 R9V       0.051450
     31 H15         16.7600    -3.9490    58.9550 hc         1 R9V       0.051450
     32 H16         14.9330    -0.3820    59.5530 ho         1 R9V       0.437000
     33 H18         20.7620    -3.7210    57.1410 ha         1 R9V       0.117500
     34 H19         23.0780    -2.8090    57.1600 ha         1 R9V       0.110000
     35 H20         23.6830    -0.9050    55.6660 ha         1 R9V       0.110000
@<TRIPOS>BOND
     1     1     2 ar  
     2     1    13 ar  
     3     1    17 1   
     4     2    16 ar  
     5     2    18 1   
     6     3    12 1   
     7     3    13 1   
     8     3    19 1   
     9     3    20 1   
    10     4     5 1   
    11     4    10 1   
    12     4    12 1   
    13     4    21 1   
    14     5     6 1   
    15     5    22 1   
    16     5    23 1   
    17     6     7 1   
    18     6    24 1   
    19     6    25 1   
    20     7     8 1   
    21     7    12 1   
    22     7    26 1   
    23     8     9 1   
    24     8    27 1   
    25     8    28 1   
    26     9    10 1   
    27     9    11 1   
    28     9    29 1   
    29    10    30 1   
    30    10    31 1   
    31    11    32 1   
    32    13    14 ar  
    33    14    15 ar  
    34    14    33 1   
    35    15    16 ar  
    36    15    34 1   
    37    16    35 1   
@<TRIPOS>SUBSTRUCTURE
     1 R9V         1 TEMP              0 ****  ****    0 ROOT
