@<TRIPOS>MOLECULE
R9W
   30    32     1     0     0
SMALL
No Charge or Current Charge


@<TRIPOS>ATOM
      1 C1           6.9350    33.4470    -1.2910 c6         1 R9W      -0.073400
      2 C2           7.5770    32.4400    -2.2650 c6         1 R9W      -0.074400
      3 C3           7.6010    31.0290    -1.6350 c6         1 R9W      -0.129700
      4 C4           6.2620    30.6210    -1.0140 ca         1 R9W       0.392300
      5 C5           5.2590    31.5690    -0.6970 ca         1 R9W      -0.198300
      6 C6           5.4660    33.0680    -0.9940 c6         1 R9W      -0.014100
      7 C7           4.0610    31.0890    -0.1360 ca         1 R9W       0.358000
      8 C8           3.9400    29.7170     0.0960 ca         1 R9W      -0.228300
      9 C9           2.7630    28.9700     0.6800 c5         1 R9W      -0.015100
     10 C10          3.4480    27.6080     1.0690 c5         1 R9W      -0.079400
     11 C11          4.6500    27.4390     0.0640 c5         1 R9W      -0.131700
     12 C12          4.9770    28.8750    -0.2400 ca         1 R9W       0.382300
     13 N1           6.1300    29.2950    -0.7890 nb         1 R9W      -0.698000
     14 N2           3.0240    31.9270     0.1740 nv         1 R9W      -1.091000
     15 H1           7.5090    33.4710    -0.3540 hc         1 R9W       0.041200
     16 H2           6.9800    34.4620    -1.7110 hc         1 R9W       0.041200
     17 H3           8.5990    32.7550    -2.5190 hc         1 R9W       0.044200
     18 H4           7.0090    32.4200    -3.2060 hc         1 R9W       0.044200
     19 H5           7.9030    30.2980    -2.3960 hc         1 R9W       0.060700
     20 H6           8.3720    30.9950    -0.8540 hc         1 R9W       0.060700
     21 H7           5.1130    33.6790    -0.1520 hc         1 R9W       0.038200
     22 H8           4.8440    33.3450    -1.8570 hc         1 R9W       0.038200
     23 H9           2.3180    29.4650     1.5510 hc         1 R9W       0.044200
     24 H10          1.9710    28.8250    -0.0640 hc         1 R9W       0.044200
     25 H11          2.7510    26.7630     1.0340 hc         1 R9W       0.045200
     26 H12          3.8250    27.6610     2.0970 hc         1 R9W       0.045200
     27 H13          4.3480    26.9040    -0.8420 hc         1 R9W       0.063200
     28 H14          5.4910    26.8960     0.5100 hc         1 R9W       0.063200
     29 H15          2.2360    31.5710     0.7110 hn         1 R9W       0.463500
     30 H16          3.1630    32.9330     0.1480 hn         1 R9W       0.463500
@<TRIPOS>BOND
     1     1     2 1   
     2     1     6 1   
     3     1    15 1   
     4     1    16 1   
     5     2     3 1   
     6     2    17 1   
     7     2    18 1   
     8     3     4 1   
     9     3    19 1   
    10     3    20 1   
    11     4     5 ar  
    12     4    13 ar  
    13     5     6 1   
    14     5     7 ar  
    15     6    21 1   
    16     6    22 1   
    17     7     8 ar  
    18     7    14 1   
    19     8     9 1   
    20     8    12 ar  
    21     9    10 1   
    22     9    23 1   
    23     9    24 1   
    24    10    11 1   
    25    10    25 1   
    26    10    26 1   
    27    11    12 1   
    28    11    27 1   
    29    11    28 1   
    30    12    13 ar  
    31    14    29 1   
    32    14    30 1   
@<TRIPOS>SUBSTRUCTURE
     1 R9W         1 TEMP              0 ****  ****    0 ROOT
