@<TRIPOS>MOLECULE
R9W
   30    32     1     0     0
SMALL
abcg2


@<TRIPOS>ATOM
      1 C1           6.9160    33.4100    -1.2880 c6         1 R9W      -0.073400
      2 C2           7.5270    32.4170    -2.2630 c6         1 R9W      -0.074400
      3 C3           7.5770    31.0380    -1.6240 c6         1 R9W      -0.129700
      4 C4           6.2660    30.6200    -1.0080 ca         1 R9W       0.392300
      5 C5           5.2840    31.5600    -0.7060 ca         1 R9W      -0.198300
      6 C6           5.4760    33.0320    -0.9690 c6         1 R9W      -0.014100
      7 C7           4.0630    31.1050    -0.1580 ca         1 R9W       0.358000
      8 C8           3.9480    29.7410     0.1020 ca         1 R9W      -0.228300
      9 C9           2.8000    28.9650     0.6760 c5         1 R9W      -0.015100
     10 C10          3.4530    27.6150     1.0330 c5         1 R9W      -0.079400
     11 C11          4.6620    27.4790     0.0940 c5         1 R9W      -0.131700
     12 C12          5.0030    28.9090    -0.2260 ca         1 R9W       0.382300
     13 N1           6.1370    29.3060    -0.7770 nb         1 R9W      -0.698000
     14 N2           3.0180    31.9530     0.0660 nv         1 R9W      -1.091000
     15 H1           7.5090    33.4180    -0.3680 hc         1 R9W       0.041200
     16 H2           6.9450    34.4250    -1.6880 hc         1 R9W       0.041200
     17 H3           8.5310    32.7280    -2.5560 hc         1 R9W       0.044200
     18 H4           6.9280    32.3830    -3.1790 hc         1 R9W       0.044200
     19 H5           7.8770    30.2800    -2.3500 hc         1 R9W       0.060700
     20 H6           8.3460    31.0290    -0.8440 hc         1 R9W       0.060700
     21 H7           5.1460    33.6120    -0.1010 hc         1 R9W       0.038200
     22 H8           4.8250    33.3420    -1.7950 hc         1 R9W       0.038200
     23 H9           2.3420    29.4380     1.5480 hc         1 R9W       0.044200
     24 H10          2.0030    28.8390    -0.0660 hc         1 R9W       0.044200
     25 H11          2.7570    26.7800     0.9540 hc         1 R9W       0.045200
     26 H12          3.8030    27.6500     2.0670 hc         1 R9W       0.045200
     27 H13          4.3950    26.9480    -0.8260 hc         1 R9W       0.063200
     28 H14          5.4940    26.9350     0.5440 hc         1 R9W       0.063200
     29 H15          2.2880    31.6390     0.6830 hn         1 R9W       0.463500
     30 H16          3.2040    32.9390     0.1430 hn         1 R9W       0.463500
@<TRIPOS>BOND
     1     1     2 1   
     2     1     6 1   
     3     1    15 1   
     4     1    16 1   
     5     2     3 1   
     6     2    17 1   
     7     2    18 1   
     8     3     4 1   
     9     3    19 1   
    10     3    20 1   
    11     4     5 ar  
    12     4    13 ar  
    13     5     6 1   
    14     5     7 ar  
    15     6    21 1   
    16     6    22 1   
    17     7     8 ar  
    18     7    14 1   
    19     8     9 1   
    20     8    12 ar  
    21     9    10 1   
    22     9    23 1   
    23     9    24 1   
    24    10    11 1   
    25    10    25 1   
    26    10    26 1   
    27    11    12 1   
    28    11    27 1   
    29    11    28 1   
    30    12    13 ar  
    31    14    29 1   
    32    14    30 1   
@<TRIPOS>SUBSTRUCTURE
     1 R9W         1 TEMP              0 ****  ****    0 ROOT
