@<TRIPOS>MOLECULE
R9Y
   29    30     1     0     0
SMALL
abcg2


@<TRIPOS>ATOM
      1 C4          24.5290     0.7310    59.7020 ca         1 R9Y      -0.151300
      2 C5          23.4520     1.4720    60.2290 ca         1 R9Y       0.332000
      3 C6          23.7240     2.7580    60.7260 ca         1 R9Y      -0.189000
      4 N1          27.4630     4.4720    59.4710 n8         1 R9Y      -0.996200
      5 C7          25.0000     3.2950    60.6770 ca         1 R9Y      -0.044000
      6 C8          26.0660     2.5780    60.1450 ca         1 R9Y      -0.139300
      7 C9          25.7940     1.3030    59.6630 ca         1 R9Y      -0.068000
      8 C10         27.4560     3.1550    60.0940 c3         1 R9Y       0.207100
      9 C3          24.3250    -0.6720    59.1920 c6         1 R9Y      -0.020100
     10 C2          22.8650    -0.9350    58.8630 c6         1 R9Y      -0.085400
     11 C1          21.9920    -0.4640    60.0110 c6         1 R9Y       0.222800
     12 N           22.1720     0.9560    60.2350 nh         1 R9Y      -0.815400
     13 C           21.1390     1.6310    60.9810 c3         1 R9Y       0.208100
     14 H1          22.9350     3.3550    61.1620 ha         1 R9Y       0.111000
     15 H2          28.4070     4.8380    59.4740 hn         1 R9Y       0.392500
     16 H3          27.2040     4.3810    58.4970 hn         1 R9Y       0.392500
     17 H5          25.1640     4.2940    61.0640 ha         1 R9Y       0.121000
     18 H6          26.6030     0.7200    59.2330 ha         1 R9Y       0.101000
     19 H7          28.1170     2.4280    59.6020 h1         1 R9Y       0.029700
     20 H8          27.8420     3.2710    61.1120 h1         1 R9Y       0.029700
     21 H9          24.6540    -1.3870    59.9530 hc         1 R9Y       0.045200
     22 H10         24.9580    -0.8480    58.3190 hc         1 R9Y       0.045200
     23 H11         22.5760    -0.4070    57.9510 hc         1 R9Y       0.051200
     24 H12         22.6950    -1.9990    58.6870 hc         1 R9Y       0.051200
     25 H13         20.9410    -0.6400    59.7790 h1         1 R9Y       0.034700
     26 H14         22.2220    -1.0480    60.9140 h1         1 R9Y       0.034700
     27 H15         20.9940     2.6530    60.6270 h1         1 R9Y       0.033700
     28 H16         20.1980     1.1050    60.8360 h1         1 R9Y       0.033700
     29 H17         21.3390     1.6740    62.0590 h1         1 R9Y       0.033700
@<TRIPOS>BOND
     1     1     2 ar  
     2     1     7 ar  
     3     1     9 1   
     4     2     3 ar  
     5     2    12 1   
     6     3     5 ar  
     7     3    14 1   
     8     4     8 1   
     9     4    15 1   
    10     4    16 1   
    11     5     6 ar  
    12     5    17 1   
    13     6     7 ar  
    14     6     8 1   
    15     7    18 1   
    16     8    19 1   
    17     8    20 1   
    18     9    10 1   
    19     9    21 1   
    20     9    22 1   
    21    10    11 1   
    22    10    23 1   
    23    10    24 1   
    24    11    12 1   
    25    11    25 1   
    26    11    26 1   
    27    12    13 1   
    28    13    27 1   
    29    13    28 1   
    30    13    29 1   
@<TRIPOS>SUBSTRUCTURE
     1 R9Y         1 TEMP              0 ****  ****    0 ROOT
