@<TRIPOS>MOLECULE
R9Y
   29    30     1     0     0
SMALL
No Charge or Current Charge


@<TRIPOS>ATOM
      1 C4          24.5530     0.7960    59.7470 ca         1 R9Y      -0.151300
      2 C5          23.4730     1.4810    60.3620 ca         1 R9Y       0.332000
      3 C6          23.7140     2.7610    60.9060 ca         1 R9Y      -0.189000
      4 N1          27.5660     4.2070    59.0580 n8         1 R9Y      -0.996200
      5 C7          24.9910     3.3440    60.8500 ca         1 R9Y      -0.044000
      6 C8          26.0580     2.6570    60.2470 ca         1 R9Y      -0.139300
      7 C9          25.8330     1.3830    59.6990 ca         1 R9Y      -0.068000
      8 C10         27.4430     3.2840    60.1980 c3         1 R9Y       0.207100
      9 C3          24.3550    -0.5920    59.1340 c6         1 R9Y      -0.020100
     10 C2          22.8830    -0.8320    58.7530 c6         1 R9Y      -0.085400
     11 C1          21.9590    -0.5040    59.9410 c6         1 R9Y       0.222800
     12 N           22.1770     0.8850    60.4290 nh         1 R9Y      -0.815400
     13 C           21.0260     1.5580    61.0770 c3         1 R9Y       0.208100
     14 H1          22.9160     3.3220    61.3810 ha         1 R9Y       0.111000
     15 H2          28.5380     4.5340    59.0010 hn         1 R9Y       0.392500
     16 H3          27.4370     3.6710    58.1920 hn         1 R9Y       0.392500
     17 H5          25.1520     4.3320    61.2760 ha         1 R9Y       0.121000
     18 H6          26.6550     0.8450    59.2310 ha         1 R9Y       0.101000
     19 H7          28.2070     2.4990    60.1020 h1         1 R9Y       0.029700
     20 H8          27.6370     3.8390    61.1260 h1         1 R9Y       0.029700
     21 H9          24.6790    -1.3550    59.8540 hc         1 R9Y       0.045200
     22 H10         24.9880    -0.7120    58.2430 hc         1 R9Y       0.045200
     23 H11         22.6140    -0.2000    57.8960 hc         1 R9Y       0.051200
     24 H12         22.7370    -1.8730    58.4380 hc         1 R9Y       0.051200
     25 H13         20.9160    -0.6410    59.6190 h1         1 R9Y       0.034700
     26 H14         22.1470    -1.2180    60.7570 h1         1 R9Y       0.034700
     27 H15         20.7930     2.5010    60.5640 h1         1 R9Y       0.033700
     28 H16         20.1280     0.9260    61.0450 h1         1 R9Y       0.033700
     29 H17         21.2490     1.7700    62.1320 h1         1 R9Y       0.033700
@<TRIPOS>BOND
     1     1     2 ar  
     2     1     7 ar  
     3     1     9 1   
     4     2     3 ar  
     5     2    12 1   
     6     3     5 ar  
     7     3    14 1   
     8     4     8 1   
     9     4    15 1   
    10     4    16 1   
    11     5     6 ar  
    12     5    17 1   
    13     6     7 ar  
    14     6     8 1   
    15     7    18 1   
    16     8    19 1   
    17     8    20 1   
    18     9    10 1   
    19     9    21 1   
    20     9    22 1   
    21    10    11 1   
    22    10    23 1   
    23    10    24 1   
    24    11    12 1   
    25    11    25 1   
    26    11    26 1   
    27    12    13 1   
    28    13    27 1   
    29    13    28 1   
    30    13    29 1   
@<TRIPOS>SUBSTRUCTURE
     1 R9Y         1 TEMP              0 ****  ****    0 ROOT
