@<TRIPOS>MOLECULE
RA0
   43    45     1     0     0
SMALL
bcc


@<TRIPOS>ATOM
      1 OAW         -3.9040    -3.7580     0.4190 o          1 RA0      -0.846300
      2 CAV         -4.0670    -2.7120    -0.2450 c          1 RA0       0.927600
      3 OAX         -4.8070    -2.5750    -1.2380 o          1 RA0      -0.846300
      4 CAU         -3.2650    -1.4870     0.2290 c3         1 RA0      -0.204400
      5 CAT         -3.4760    -0.2100    -0.5800 c3         1 RA0      -0.022100
      6 CAR         -2.6340     0.9170    -0.0510 ca         1 RA0      -0.034300
      7 CAS         -1.3080     1.0420    -0.4490 ca         1 RA0      -0.120000
      8 CAQ         -3.1410     1.8260     0.8770 ca         1 RA0      -0.142000
      9 CAP         -2.3330     2.8290     1.3910 ca         1 RA0      -0.128000
     10 CAO         -1.0030     2.9300     1.0050 ca         1 RA0      -0.177000
     11 CAL         -0.4830     2.0330     0.0770 ca         1 RA0       0.151600
     12 NAK          0.8530     2.1650    -0.3690 nh         1 RA0      -0.684700
     13 CAM          1.2970     3.4710    -0.8450 c3         1 RA0       0.239800
     14 CAN          2.2550     4.1880     0.0930 c3         1 RA0      -0.116100
     15 CAI          1.7100     1.0940    -0.3320 ca         1 RA0       0.702200
     16 NAJ          1.3240     0.0210     0.3170 nb         1 RA0      -0.727000
     17 CAF          2.1190    -1.0690     0.3460 ca         1 RA0       0.457600
     18 CAA          1.6700    -2.2220     1.0300 ca         1 RA0      -0.166300
     19 CAB          2.4510    -3.3480     1.0800 ca         1 RA0      -0.115000
     20 CAC          3.7130    -3.3820     0.4530 ca         1 RA0      -0.149000
     21 CAD          4.1710    -2.2760    -0.2150 ca         1 RA0      -0.105000
     22 CAE          3.3870    -1.1070    -0.2800 ca         1 RA0      -0.197300
     23 CAG          3.7940     0.0700    -0.9530 ca         1 RA0      -0.061000
     24 CAH          2.9820     1.1590    -0.9880 ca         1 RA0      -0.292300
     25 H2          -3.5080    -1.2990     1.2810 hc         1 RA0       0.023200
     26 H3          -2.2000    -1.7470     0.2280 hc         1 RA0       0.023200
     27 H4          -3.2270    -0.3970    -1.6270 hc         1 RA0       0.050700
     28 H5          -4.5310     0.0720    -0.5560 hc         1 RA0       0.050700
     29 H6          -0.9090     0.3520    -1.1820 ha         1 RA0       0.144000
     30 H7          -4.1750     1.7490     1.1930 ha         1 RA0       0.131000
     31 H8          -2.7360     3.5330     2.1080 ha         1 RA0       0.114000
     32 H9          -0.3770     3.7050     1.4290 ha         1 RA0       0.115000
     33 H10          1.7450     3.3670    -1.8360 h1         1 RA0       0.047200
     34 H11          0.4050     4.0770    -0.9930 h1         1 RA0       0.047200
     35 H12          2.5440     5.1460    -0.3380 hc         1 RA0       0.038367
     36 H13          1.7950     4.3810     1.0620 hc         1 RA0       0.038367
     37 H14          3.1670     3.6150     0.2650 hc         1 RA0       0.038367
     38 H15          0.6990    -2.1940     1.5080 ha         1 RA0       0.166000
     39 H16          2.0950    -4.2250     1.6050 ha         1 RA0       0.134000
     40 H17          4.3140    -4.2800     0.4990 ha         1 RA0       0.122000
     41 H18          5.1390    -2.2890    -0.7030 ha         1 RA0       0.118000
     42 H19          4.7560     0.0980    -1.4500 ha         1 RA0       0.123000
     43 H20          3.3040     2.0450    -1.5150 ha         1 RA0       0.133000
@<TRIPOS>BOND
     1     1     2 1   
     2     2     3 1   
     3     2     4 1   
     4     4     5 1   
     5     4    25 1   
     6     4    26 1   
     7     5     6 1   
     8     5    27 1   
     9     5    28 1   
    10     6     7 ar  
    11     6     8 ar  
    12     7    11 ar  
    13     7    29 1   
    14     8     9 ar  
    15     8    30 1   
    16     9    10 ar  
    17     9    31 1   
    18    10    11 ar  
    19    10    32 1   
    20    11    12 1   
    21    12    13 1   
    22    12    15 1   
    23    13    14 1   
    24    13    33 1   
    25    13    34 1   
    26    14    35 1   
    27    14    36 1   
    28    14    37 1   
    29    15    16 ar  
    30    15    24 ar  
    31    16    17 ar  
    32    17    18 ar  
    33    17    22 ar  
    34    18    19 ar  
    35    18    38 1   
    36    19    20 ar  
    37    19    39 1   
    38    20    21 ar  
    39    20    40 1   
    40    21    22 ar  
    41    21    41 1   
    42    22    23 ar  
    43    23    24 ar  
    44    23    42 1   
    45    24    43 1   
@<TRIPOS>SUBSTRUCTURE
     1 RA0         1 TEMP              0 ****  ****    0 ROOT
