@<TRIPOS>MOLECULE
RA0
   43    45     1     0     0
SMALL
No Charge or Current Charge


@<TRIPOS>ATOM
      1 OAW         -5.2890    -2.8420    -0.0800 o          1 RA0      -0.741000
      2 CAV         -4.1750    -2.6720    -0.5500 c          1 RA0       0.717000
      3 OAX         -3.7520    -3.2770    -1.5240 o          1 RA0      -0.741000
      4 CAU         -3.2800    -1.5920     0.0780 c3         1 RA0      -0.204400
      5 CAT         -3.5380    -0.2290    -0.6060 c3         1 RA0      -0.022100
      6 CAR         -2.6840     0.8860    -0.0140 ca         1 RA0      -0.034300
      7 CAS         -1.3410     1.0350    -0.4090 ca         1 RA0      -0.102000
      8 CAQ         -3.2280     1.7740     0.9330 ca         1 RA0      -0.124000
      9 CAP         -2.4360     2.7990     1.4760 ca         1 RA0      -0.110000
     10 CAO         -1.0970     2.9390     1.0750 ca         1 RA0      -0.159000
     11 CAL         -0.5330     2.0560     0.1310 ca         1 RA0       0.290000
     12 NAK          0.8150     2.2060    -0.2820 nh         1 RA0      -0.823100
     13 CAM          1.3040     3.5570    -0.6480 c3         1 RA0       0.239800
     14 CAN          2.4620     4.0580     0.2360 c3         1 RA0      -0.116100
     15 CAI          1.6810     1.0980    -0.3820 ca         1 RA0       0.636900
     16 NAJ          1.4690     0.1330     0.5310 nb         1 RA0      -0.727000
     17 CAF          2.2550    -0.9660     0.5180 ca         1 RA0       0.327000
     18 CAA          2.0410    -1.9860     1.4630 ca         1 RA0      -0.083000
     19 CAB          2.8420    -3.1420     1.4760 ca         1 RA0      -0.097000
     20 CAC          3.8730    -3.2900     0.5350 ca         1 RA0      -0.131000
     21 CAD          4.1030    -2.2850    -0.4170 ca         1 RA0      -0.087000
     22 CAE          3.2990    -1.1280    -0.4270 ca         1 RA0      -0.132000
     23 CAG          3.5250    -0.1210    -1.3780 ca         1 RA0      -0.043000
     24 CAH          2.6990     1.0100    -1.3510 ca         1 RA0      -0.209000
     25 H2          -3.5340    -1.4490     1.1350 hc         1 RA0       0.023200
     26 H3          -2.2210    -1.8210    -0.0950 hc         1 RA0       0.023200
     27 H4          -3.3350    -0.3210    -1.6810 hc         1 RA0       0.050700
     28 H5          -4.6020     0.0220    -0.5190 hc         1 RA0       0.050700
     29 H6          -0.9210     0.3540    -1.1430 ha         1 RA0       0.126000
     30 H7          -4.2630     1.6690     1.2500 ha         1 RA0       0.113000
     31 H8          -2.8600     3.4820     2.2090 ha         1 RA0       0.096000
     32 H9          -0.4930     3.7290     1.5120 ha         1 RA0       0.097000
     33 H10          1.6150     3.5740    -1.7000 h1         1 RA0       0.047200
     34 H11          0.4850     4.2850    -0.5750 h1         1 RA0       0.047200
     35 H12          2.7530     5.0720    -0.0620 hc         1 RA0       0.038367
     36 H13          2.1600     4.0830     1.2900 hc         1 RA0       0.038367
     37 H14          3.3410     3.4100     0.1420 hc         1 RA0       0.038367
     38 H15          1.2440    -1.8760     2.1930 ha         1 RA0       0.148000
     39 H16          2.6620    -3.9210     2.2140 ha         1 RA0       0.116000
     40 H17          4.4940    -4.1840     0.5430 ha         1 RA0       0.104000
     41 H18          4.9030    -2.4050    -1.1440 ha         1 RA0       0.100000
     42 H19          4.3160    -0.2130    -2.1190 ha         1 RA0       0.105000
     43 H20          2.8460     1.7970    -2.0810 ha         1 RA0       0.115000
@<TRIPOS>BOND
     1     1     2 1   
     2     2     3 1   
     3     2     4 1   
     4     4     5 1   
     5     4    25 1   
     6     4    26 1   
     7     5     6 1   
     8     5    27 1   
     9     5    28 1   
    10     6     7 ar  
    11     6     8 ar  
    12     7    11 ar  
    13     7    29 1   
    14     8     9 ar  
    15     8    30 1   
    16     9    10 ar  
    17     9    31 1   
    18    10    11 ar  
    19    10    32 1   
    20    11    12 1   
    21    12    13 1   
    22    12    15 1   
    23    13    14 1   
    24    13    33 1   
    25    13    34 1   
    26    14    35 1   
    27    14    36 1   
    28    14    37 1   
    29    15    16 ar  
    30    15    24 ar  
    31    16    17 ar  
    32    17    18 ar  
    33    17    22 ar  
    34    18    19 ar  
    35    18    38 1   
    36    19    20 ar  
    37    19    39 1   
    38    20    21 ar  
    39    20    40 1   
    40    21    22 ar  
    41    21    41 1   
    42    22    23 ar  
    43    23    24 ar  
    44    23    42 1   
    45    24    43 1   
@<TRIPOS>SUBSTRUCTURE
     1 RA0         1 TEMP              0 ****  ****    0 ROOT
