@<TRIPOS>MOLECULE
RA1
   33    34     1     0     0
SMALL
No Charge or Current Charge


@<TRIPOS>ATOM
      1 Cl           3.2390    -2.7930    -0.2250 cl         1 RA1      -0.139000
      2 C10          3.4610    -1.0410    -0.1580 ca         1 RA1       0.143000
      3 C9           4.7790    -0.5840     0.0250 ca         1 RA1      -0.050000
      4 C8           5.0630     0.7950     0.1390 ca         1 RA1      -0.151200
      5 N2           6.4720     1.2710     0.3320 no         1 RA1       0.692200
      6 O4           6.6700     2.4890     0.4310 o          1 RA1      -0.385000
      7 O3           7.3740     0.4240     0.3850 o          1 RA1      -0.385000
      8 C7           3.9960     1.7140     0.0700 ca         1 RA1      -0.052000
      9 C6           2.6770     1.2630    -0.1110 ca         1 RA1      -0.095000
     10 C5           2.3810    -0.1200    -0.2300 ca         1 RA1      -0.117600
     11 C4           0.9450    -0.5740    -0.4390 c          1 RA1       0.622700
     12 O2           0.6620    -1.6090    -1.0300 o          1 RA1      -0.531100
     13 N1          -0.0200     0.3130     0.0260 ns         1 RA1      -0.142000
     14 C3          -1.4410     0.2700     0.0250 ca         1 RA1       0.032000
     15 C2          -2.1270     1.4400     0.3980 ca         1 RA1      -0.174500
     16 C1          -3.5310     1.4770     0.4290 ca         1 RA1       0.022000
     17 C11         -2.1890    -0.8800    -0.3080 ca         1 RA1      -0.174500
     18 C12         -3.5950    -0.8520    -0.2800 ca         1 RA1       0.022000
     19 C           -4.2700     0.3280     0.0860 ca         1 RA1      -0.303500
     20 S           -6.0610     0.3590     0.1210 sy         1 RA1       1.129600
     21 O           -6.5940    -0.9870     0.3250 o          1 RA1      -0.543500
     22 O1          -6.5270     1.5230     0.8700 o          1 RA1      -0.543500
     23 N           -6.4120     0.7280    -1.4330 n8         1 RA1      -1.000100
     24 H1           5.5780    -1.3200     0.0830 ha         1 RA1       0.172000
     25 H2           4.1770     2.7860     0.1500 ha         1 RA1       0.161000
     26 H3           1.8930     2.0140    -0.1800 ha         1 RA1       0.136000
     27 H4           0.3590     1.1380     0.4690 hn         1 RA1       0.160000
     28 H5          -1.5690     2.3350     0.6660 ha         1 RA1       0.135500
     29 H6          -4.0350     2.3980     0.7200 ha         1 RA1       0.140500
     30 H7          -1.7050    -1.8110    -0.5820 ha         1 RA1       0.135500
     31 H8          -4.1520    -1.7500    -0.5430 ha         1 RA1       0.140500
     32 H9          -7.0320     1.5240    -1.3060 hn         1 RA1       0.471500
     33 H10         -5.5430     1.1440    -1.7570 hn         1 RA1       0.471500
@<TRIPOS>BOND
     1     1     2 1   
     2     2     3 ar  
     3     2    10 ar  
     4     3     4 ar  
     5     3    24 1   
     6     4     5 1   
     7     4     8 ar  
     8     5     6 1   
     9     5     7 1   
    10     8     9 ar  
    11     8    25 1   
    12     9    10 ar  
    13     9    26 1   
    14    10    11 1   
    15    11    12 2   
    16    11    13 1   
    17    13    14 1   
    18    13    27 1   
    19    14    15 ar  
    20    14    17 ar  
    21    15    16 ar  
    22    15    28 1   
    23    16    19 ar  
    24    16    29 1   
    25    17    18 ar  
    26    17    30 1   
    27    18    19 ar  
    28    18    31 1   
    29    19    20 1   
    30    20    21 2   
    31    20    22 2   
    32    20    23 1   
    33    23    32 1   
    34    23    33 1   
@<TRIPOS>SUBSTRUCTURE
     1 RA1         1 TEMP              0 ****  ****    0 ROOT
