@<TRIPOS>MOLECULE
RA1
   33    34     1     0     0
SMALL
bcc


@<TRIPOS>ATOM
      1 CL           2.8700    -2.5370     0.7060 cl         1 RA1      -0.047400
      2 C10          3.3030    -0.9350     0.2430 ca         1 RA1       0.051400
      3 C9           4.6210    -0.5450     0.3960 ca         1 RA1      -0.068000
      4 C8           4.9690     0.7500     0.0520 ca         1 RA1      -0.151200
      5 N2           6.3620     1.1620     0.2050 no         1 RA1       0.312200
      6 O4           6.6480     2.2950    -0.0920 o          1 RA1      -0.195000
      7 O3           7.1490     0.3460     0.6200 o          1 RA1      -0.195000
      8 C7           4.0440     1.6610    -0.4240 ca         1 RA1      -0.070000
      9 C6           2.7290     1.2510    -0.5570 ca         1 RA1      -0.113000
     10 C5           2.3420    -0.0440    -0.2320 ca         1 RA1      -0.117600
     11 C4           0.9240    -0.4730    -0.4660 c          1 RA1       0.689700
     12 O2           0.6640    -1.4270    -1.1670 o          1 RA1      -0.531100
     13 N1           0.0170     0.3200     0.1560 ns         1 RA1      -0.468100
     14 C3          -1.3740     0.2700     0.1040 ca         1 RA1       0.124600
     15 C2          -2.0600     1.2590     0.8120 ca         1 RA1      -0.192500
     16 C1          -3.4410     1.2960     0.8190 ca         1 RA1       0.004000
     17 C11         -2.0980    -0.6970    -0.6000 ca         1 RA1      -0.192500
     18 C12         -3.4800    -0.6560    -0.5920 ca         1 RA1       0.004000
     19 C           -4.1490     0.3360     0.1110 ca         1 RA1      -0.303500
     20 S           -5.9130     0.3580     0.1050 sy         1 RA1       1.271200
     21 O           -6.4210    -1.0060     0.1410 o          1 RA1      -0.614300
     22 O1          -6.3510     1.2890     1.1370 o          1 RA1      -0.614300
     23 N           -6.2180     0.9070    -1.4250 n8         1 RA1      -0.889700
     24 H1           5.3510    -1.2440     0.7760 ha         1 RA1       0.190000
     25 H2           4.3230     2.6690    -0.6930 ha         1 RA1       0.179000
     26 H3           1.9960     1.9520    -0.9340 ha         1 RA1       0.154000
     27 H4           0.3940     1.0470     0.7480 hn         1 RA1       0.326500
     28 H5          -1.5100     2.0140     1.3600 ha         1 RA1       0.153500
     29 H6          -3.9490     2.0720     1.3730 ha         1 RA1       0.158500
     30 H7          -1.6010    -1.4810    -1.1460 ha         1 RA1       0.153500
     31 H8          -4.0270    -1.4140    -1.1390 ha         1 RA1       0.158500
     32 H9          -7.1800     0.7250    -1.6980 hn         1 RA1       0.416300
     33 H10         -6.0090     1.8950    -1.5330 hn         1 RA1       0.416300
@<TRIPOS>BOND
     1     1     2 1   
     2     2     3 ar  
     3     2    10 ar  
     4     3     4 ar  
     5     3    24 1   
     6     4     5 1   
     7     4     8 ar  
     8     5     6 1   
     9     5     7 1   
    10     8     9 ar  
    11     8    25 1   
    12     9    10 ar  
    13     9    26 1   
    14    10    11 1   
    15    11    12 2   
    16    11    13 1   
    17    13    14 1   
    18    13    27 1   
    19    14    15 ar  
    20    14    17 ar  
    21    15    16 ar  
    22    15    28 1   
    23    16    19 ar  
    24    16    29 1   
    25    17    18 ar  
    26    17    30 1   
    27    18    19 ar  
    28    18    31 1   
    29    19    20 1   
    30    20    21 2   
    31    20    22 2   
    32    20    23 1   
    33    23    32 1   
    34    23    33 1   
@<TRIPOS>SUBSTRUCTURE
     1 RA1         1 TEMP              0 ****  ****    0 ROOT
