@<TRIPOS>MOLECULE
RA2
   50    51     1     0     0
SMALL
No Charge or Current Charge


@<TRIPOS>ATOM
      1 C1          -2.1070    -0.3300    -0.7350 ca         1 RA2      -0.087000
      2 C2          -0.9150    -0.0980    -0.0260 ca         1 RA2      -0.165000
      3 C3           0.2350     0.3220    -0.7280 ca         1 RA2       0.339000
      4 C4           0.1570     0.5910    -2.1060 ca         1 RA2      -0.167000
      5 C5          -1.0510     0.4080    -2.8210 ca         1 RA2      -0.086600
      6 C6          -2.1790    -0.0670    -2.1120 ca         1 RA2      -0.136000
      7 C10         -1.1300     0.6980    -4.3170 c          1 RA2       0.710600
      8 N11         -0.8390    -0.4740     1.3640 n          1 RA2      -0.222400
      9 N12          1.4410     0.4770    -0.0440 nu         1 RA2      -0.997200
     10 C13          2.7680     0.0370    -0.5000 c3         1 RA2       0.245500
     11 C14          3.8550     0.8110     0.2920 c3         1 RA2      -0.087400
     12 C15          3.8570     2.3370     0.0510 c3         1 RA2      -0.090600
     13 C21          2.9240    -1.4990    -0.3210 c3         1 RA2      -0.087400
     14 C23          2.0930    -2.3570    -1.3010 c3         1 RA2      -0.090600
     15 C29         -1.1450     0.4790     2.4800 c5         1 RA2       0.134400
     16 C30         -1.4140    -0.5400     3.6570 c5         1 RA2      -0.079400
     17 C31         -0.5350    -1.7600     3.2890 c5         1 RA2      -0.167400
     18 C32         -0.6340    -1.8020     1.7710 c          1 RA2       0.566000
     19 O37         -0.7340    -2.7860     1.0470 o          1 RA2      -0.544000
     20 C38          0.0510     1.4550     2.7740 c3         1 RA2       0.158600
     21 O39          1.3090     0.7760     2.9330 oh         1 RA2      -0.655000
     22 C42         -2.4390     1.3400     2.2520 c3         1 RA2       0.158600
     23 O43         -2.2790     2.3880     1.2780 oh         1 RA2      -0.655000
     24 O49         -2.1950     0.5250    -4.8940 o          1 RA2      -0.723000
     25 O50         -0.1260     1.0960    -4.8920 o          1 RA2      -0.723000
     26 H1          -2.9830    -0.7110    -0.2150 ha         1 RA2       0.080000
     27 H4           1.0410     0.9440    -2.6260 ha         1 RA2       0.130000
     28 H6          -3.1190    -0.2390    -2.6310 ha         1 RA2       0.128000
     29 H12          1.3160     0.4570     0.9730 hn         1 RA2       0.481000
     30 H13          2.9120     0.2780    -1.5640 h1         1 RA2       0.073700
     31 H141         4.8410     0.4250     0.0060 hc         1 RA2       0.025700
     32 H142         3.7440     0.6130     1.3660 hc         1 RA2       0.025700
     33 H151         4.6860     2.8070     0.5930 hc         1 RA2       0.038033
     34 H152         3.9750     2.5600    -1.0160 hc         1 RA2       0.038033
     35 H153         2.9220     2.7930     0.3990 hc         1 RA2       0.038033
     36 H211         3.9790    -1.7620    -0.4690 hc         1 RA2       0.025700
     37 H212         2.6760    -1.7800     0.7100 hc         1 RA2       0.025700
     38 H231         2.3400    -3.4180    -1.1790 hc         1 RA2       0.038033
     39 H232         1.0190    -2.2420    -1.1200 hc         1 RA2       0.038033
     40 H233         2.3020    -2.0730    -2.3390 hc         1 RA2       0.038033
     41 H301        -2.4680    -0.8400     3.6880 hc         1 RA2       0.043200
     42 H302        -1.1730    -0.1270     4.6430 hc         1 RA2       0.043200
     43 H311        -0.8370    -2.7110     3.7390 hc         1 RA2       0.068700
     44 H312         0.5050    -1.5550     3.5610 hc         1 RA2       0.068700
     45 H381         0.1420     2.1750     1.9510 h1         1 RA2       0.029700
     46 H282        -0.1830     2.0270     3.6820 h1         1 RA2       0.029700
     47 H39          1.9310     1.4160     3.3420 ho         1 RA2       0.442500
     48 H421        -3.2540     0.6690     1.9480 h1         1 RA2       0.029700
     49 H422        -2.7290     1.7820     3.2140 h1         1 RA2       0.029700
     50 H43         -3.1680     2.7730     1.1190 ho         1 RA2       0.442500
@<TRIPOS>BOND
     1     1     2 ar  
     2     1     6 ar  
     3     1    26 1   
     4     2     3 ar  
     5     2     8 1   
     6     3     4 ar  
     7     3     9 1   
     8     4     5 ar  
     9     4    27 1   
    10     5     6 ar  
    11     5     7 1   
    12     6    28 1   
    13     7    24 1   
    14     7    25 1   
    15     8    15 1   
    16     8    18 1   
    17     9    10 1   
    18     9    29 1   
    19    10    11 1   
    20    10    13 1   
    21    10    30 1   
    22    11    12 1   
    23    11    31 1   
    24    11    32 1   
    25    12    33 1   
    26    12    34 1   
    27    12    35 1   
    28    13    14 1   
    29    13    36 1   
    30    13    37 1   
    31    14    38 1   
    32    14    39 1   
    33    14    40 1   
    34    15    16 1   
    35    15    20 1   
    36    15    22 1   
    37    16    17 1   
    38    16    41 1   
    39    16    42 1   
    40    17    18 1   
    41    17    43 1   
    42    17    44 1   
    43    18    19 2   
    44    20    21 1   
    45    20    45 1   
    46    20    46 1   
    47    21    47 1   
    48    22    23 1   
    49    22    48 1   
    50    22    49 1   
    51    23    50 1   
@<TRIPOS>SUBSTRUCTURE
     1 RA2         1 TEMP              0 ****  ****    0 ROOT
