@<TRIPOS>MOLECULE
RA2
   50    51     1     0     0
SMALL
abcg2


@<TRIPOS>ATOM
      1 C1          -2.1550    -0.0740    -0.6810 ca         1 RA2      -0.087000
      2 C2          -0.9550    -0.1170     0.0090 ca         1 RA2      -0.165000
      3 C3           0.2670     0.0710    -0.6730 ca         1 RA2       0.339000
      4 C4           0.1970     0.3170    -2.0540 ca         1 RA2      -0.167000
      5 C5          -1.0100     0.3790    -2.7350 ca         1 RA2      -0.086600
      6 C6          -2.2020     0.1790    -2.0410 ca         1 RA2      -0.136000
      7 C10         -1.0250     0.6590    -4.2350 c          1 RA2       0.710600
      8 N11         -0.9610    -0.4290     1.3940 n          1 RA2      -0.222400
      9 N12          1.4430     0.0290     0.0130 nu         1 RA2      -0.997200
     10 C13          2.7780    -0.0420    -0.5370 c3         1 RA2       0.245500
     11 C14          3.7090     0.8810     0.2500 c3         1 RA2      -0.087400
     12 C15          3.3460     2.3530     0.1300 c3         1 RA2      -0.090600
     13 C21          3.3120    -1.4760    -0.5670 c3         1 RA2      -0.087400
     14 C23          2.4240    -2.4460    -1.3320 c3         1 RA2      -0.090600
     15 C29         -1.1490     0.5420     2.4820 c5         1 RA2       0.134400
     16 C30         -1.4220    -0.3800     3.6890 c5         1 RA2      -0.079400
     17 C31         -0.8260    -1.7290     3.3210 c5         1 RA2      -0.167400
     18 C32         -0.7680    -1.7060     1.8150 c          1 RA2       0.566000
     19 O37         -0.5740    -2.6600     1.0840 o          1 RA2      -0.544000
     20 C38          0.0990     1.3940     2.6910 c3         1 RA2       0.158600
     21 O39          1.1770     0.5450     3.0200 oh         1 RA2      -0.655000
     22 C42         -2.3610     1.4450     2.2810 c3         1 RA2       0.158600
     23 O43         -2.1000     2.4420     1.3270 oh         1 RA2      -0.655000
     24 O49         -2.1450     0.7130    -4.7790 o          1 RA2      -0.723000
     25 O50          0.0800     0.8120    -4.7930 o          1 RA2      -0.723000
     26 H1          -3.0720    -0.2550    -0.1320 ha         1 RA2       0.080000
     27 H4           1.1030     0.4620    -2.6240 ha         1 RA2       0.130000
     28 H6          -3.1490     0.2120    -2.5610 ha         1 RA2       0.128000
     29 H12          1.3810    -0.1470     1.0060 hn         1 RA2       0.481000
     30 H13          2.7470     0.3250    -1.5660 h1         1 RA2       0.073700
     31 H141         4.7310     0.7260    -0.1040 hc         1 RA2       0.025700
     32 H142         3.7090     0.5760     1.3020 hc         1 RA2       0.025700
     33 H151         4.0170     2.9760     0.7210 hc         1 RA2       0.038033
     34 H152         3.4100     2.6880    -0.9070 hc         1 RA2       0.038033
     35 H153         2.3280     2.5430     0.4720 hc         1 RA2       0.038033
     36 H211         4.3110    -1.4560    -1.0140 hc         1 RA2       0.025700
     37 H212         3.4460    -1.8300     0.4620 hc         1 RA2       0.025700
     38 H231         2.8910    -3.4290    -1.4010 hc         1 RA2       0.038033
     39 H232         1.4590    -2.5730    -0.8410 hc         1 RA2       0.038033
     40 H233         2.2370    -2.0980    -2.3500 hc         1 RA2       0.038033
     41 H301        -2.5020    -0.4810     3.8220 hc         1 RA2       0.043200
     42 H302        -1.0220     0.0360     4.6120 hc         1 RA2       0.043200
     43 H311        -1.4190    -2.5750     3.6670 hc         1 RA2       0.068700
     44 H312         0.1860    -1.8610     3.7060 hc         1 RA2       0.068700
     45 H381         0.3140     1.9780     1.7890 h1         1 RA2       0.029700
     46 H282        -0.1040     2.1080     3.4990 h1         1 RA2       0.029700
     47 H39          1.9560     1.0910     3.1670 ho         1 RA2       0.442500
     48 H421        -3.2170     0.8180     2.0020 h1         1 RA2       0.029700
     49 H422        -2.6010     1.8860     3.2600 h1         1 RA2       0.029700
     50 H43         -2.9310     2.8690     1.1030 ho         1 RA2       0.442500
@<TRIPOS>BOND
     1     1     2 ar  
     2     1     6 ar  
     3     1    26 1   
     4     2     3 ar  
     5     2     8 1   
     6     3     4 ar  
     7     3     9 1   
     8     4     5 ar  
     9     4    27 1   
    10     5     6 ar  
    11     5     7 1   
    12     6    28 1   
    13     7    24 1   
    14     7    25 1   
    15     8    15 1   
    16     8    18 1   
    17     9    10 1   
    18     9    29 1   
    19    10    11 1   
    20    10    13 1   
    21    10    30 1   
    22    11    12 1   
    23    11    31 1   
    24    11    32 1   
    25    12    33 1   
    26    12    34 1   
    27    12    35 1   
    28    13    14 1   
    29    13    36 1   
    30    13    37 1   
    31    14    38 1   
    32    14    39 1   
    33    14    40 1   
    34    15    16 1   
    35    15    20 1   
    36    15    22 1   
    37    16    17 1   
    38    16    41 1   
    39    16    42 1   
    40    17    18 1   
    41    17    43 1   
    42    17    44 1   
    43    18    19 2   
    44    20    21 1   
    45    20    45 1   
    46    20    46 1   
    47    21    47 1   
    48    22    23 1   
    49    22    48 1   
    50    22    49 1   
    51    23    50 1   
@<TRIPOS>SUBSTRUCTURE
     1 RA2         1 TEMP              0 ****  ****    0 ROOT
