@<TRIPOS>MOLECULE
RA3
   42    45     1     0     0
SMALL
abcg2


@<TRIPOS>ATOM
      1 C18        -44.0640   -29.2560     5.9620 ca         1 RA3       0.181900
      2 C16        -46.2720   -29.4140     6.1470 ca         1 RA3       0.193500
      3 C13        -48.7150   -28.8060     3.4660 ca         1 RA3      -0.037000
      4 C12        -50.0890   -28.7180     3.6500 ca         1 RA3      -0.175000
      5 C11        -50.6220   -28.9320     4.9160 ca         1 RA3       0.178000
      6 C10        -49.8600   -29.2080     6.0340 ca         1 RA3      -0.180000
      7 C20        -46.1480   -30.0070     1.8490 c6         1 RA3       0.160800
      8 C02        -42.1250   -29.7140     0.5670 c3         1 RA3       0.174600
      9 C03        -43.3250   -30.0620     1.4150 c6         1 RA3       0.135300
     10 C04        -44.0380   -28.8050     1.9080 c6         1 RA3       0.179800
     11 C06        -45.2730   -29.1800     3.9930 ca         1 RA3       0.433900
     12 C07        -46.4590   -29.2430     4.7580 cp         1 RA3      -0.224000
     13 C08        -47.8890   -29.1130     4.5500 cp         1 RA3      -0.049000
     14 C09        -48.4870   -29.2810     5.8310 ca         1 RA3       0.002800
     15 C21        -45.3870   -31.2410     1.3650 c6         1 RA3       0.160300
     16 C23        -46.2340   -32.1120     0.4630 c3         1 RA3      -0.201400
     17 C24        -45.5670   -33.4470     0.0680 c          1 RA3       0.723000
     18 F14        -51.9710   -28.8500     5.0660 f          1 RA3      -0.193000
     19 N05        -45.2640   -29.1380     2.6270 nh         1 RA3      -0.760300
     20 N15        -47.4900   -29.4790     6.7650 na         1 RA3      -0.336300
     21 N17        -45.0970   -29.4450     6.7810 nb         1 RA3      -0.252000
     22 N19        -44.0870   -29.1320     4.6380 nb         1 RA3      -0.284000
     23 O01        -41.3730   -30.9000     0.3070 oh         1 RA3      -0.692000
     24 O22        -44.2220   -30.8490     0.6310 os         1 RA3      -0.420000
     25 O25        -44.9670   -34.0780     0.9760 o          1 RA3      -0.732500
     26 O26        -45.7050   -33.8160    -1.1260 o          1 RA3      -0.732500
     27 H181       -43.0840   -29.2150     6.4260 h5         1 RA3       0.041100
     28 H131       -48.3040   -28.6170     2.4860 ha         1 RA3       0.132000
     29 H121       -50.7490   -28.4810     2.8270 ha         1 RA3       0.130000
     30 H101       -50.3130   -29.3410     7.0060 ha         1 RA3       0.130000
     31 H201       -46.5380   -29.4520     0.9920 h1         1 RA3       0.060700
     32 H202       -46.9810   -30.3360     2.4600 h1         1 RA3       0.060700
     33 H022       -41.5150   -28.9820     1.1080 h1         1 RA3       0.015700
     34 H021       -42.4650   -29.2570    -0.3680 h1         1 RA3       0.015700
     35 H031       -42.9980   -30.6510     2.2810 h1         1 RA3       0.067700
     36 H042       -43.3890   -28.2250     2.5550 h1         1 RA3       0.058700
     37 H041       -44.3200   -28.1960     1.0440 h1         1 RA3       0.058700
     38 H211       -45.0670   -31.8190     2.2410 h1         1 RA3       0.066700
     39 H231       -46.5040   -31.5560    -0.4360 hc         1 RA3       0.029700
     40 H232       -47.1630   -32.3530     0.9910 hc         1 RA3       0.029700
     41 H151       -47.6250   -29.5550     7.7610 hn         1 RA3       0.361000
     42 H011       -40.6420   -30.6700    -0.2780 ho         1 RA3       0.486000
@<TRIPOS>BOND
     1     1    21 ar  
     2     1    22 ar  
     3     1    27 1   
     4     2    12 ar  
     5     2    20 1   
     6     2    21 ar  
     7     3     4 ar  
     8     3    13 ar  
     9     3    28 1   
    10     4     5 ar  
    11     4    29 1   
    12     5     6 ar  
    13     5    18 1   
    14     6    14 ar  
    15     6    30 1   
    16     7    15 1   
    17     7    19 1   
    18     7    31 1   
    19     7    32 1   
    20     8     9 1   
    21     8    23 1   
    22     8    33 1   
    23     8    34 1   
    24     9    10 1   
    25     9    24 1   
    26     9    35 1   
    27    10    19 1   
    28    10    36 1   
    29    10    37 1   
    30    11    12 ar  
    31    11    19 1   
    32    11    22 ar  
    33    12    13 1   
    34    13    14 ar  
    35    14    20 1   
    36    15    16 1   
    37    15    24 1   
    38    15    38 1   
    39    16    17 1   
    40    16    39 1   
    41    16    40 1   
    42    17    25 1   
    43    17    26 1   
    44    20    41 1   
    45    23    42 1   
@<TRIPOS>SUBSTRUCTURE
     1 RA3         1 TEMP              0 ****  ****    0 ROOT
