@<TRIPOS>MOLECULE
RA3
   42    45     1     0     0
SMALL
No Charge or Current Charge


@<TRIPOS>ATOM
      1 C18        -44.0930   -29.8200     5.9750 ca         1 RA3       0.181900
      2 C16        -46.3130   -29.4810     6.3130 ca         1 RA3       0.193500
      3 C13        -48.6200   -28.6110     3.5330 ca         1 RA3      -0.037000
      4 C12        -50.0040   -28.3440     3.6490 ca         1 RA3      -0.175000
      5 C11        -50.6490   -28.4220     4.9060 ca         1 RA3       0.178000
      6 C10        -49.9290   -28.7570     6.0690 ca         1 RA3      -0.180000
      7 C20        -46.2010   -30.3710     1.9400 c6         1 RA3       0.160800
      8 C02        -42.2710   -29.3930     0.3710 c3         1 RA3       0.174600
      9 C03        -43.3960   -29.9470     1.3020 c6         1 RA3       0.135300
     10 C04        -44.2710   -28.7980     1.8940 c6         1 RA3       0.179800
     11 C06        -45.3740   -29.4010     4.0930 ca         1 RA3       0.433900
     12 C07        -46.4990   -29.2860     4.9410 cp         1 RA3      -0.224000
     13 C08        -47.9080   -28.9740     4.6960 cp         1 RA3      -0.049000
     14 C09        -48.5660   -29.0210     5.9190 ca         1 RA3       0.002800
     15 C21        -45.2660   -31.4790     1.3560 c6         1 RA3       0.160300
     16 C23        -46.0400   -32.4900     0.4690 c3         1 RA3      -0.201400
     17 C24        -45.1830   -33.7260     0.1750 c          1 RA3       0.723000
     18 F14        -51.9700   -28.1560     4.9940 f          1 RA3      -0.193000
     19 N05        -45.4310   -29.3260     2.6830 nh         1 RA3      -0.760300
     20 N15        -47.5890   -29.3320     6.8710 na         1 RA3      -0.336300
     21 N17        -45.1170   -29.7490     6.8550 nb         1 RA3      -0.252000
     22 N19        -44.1620   -29.6670     4.6310 nb         1 RA3      -0.284000
     23 O01        -41.4300   -30.4210    -0.1840 oh         1 RA3      -0.692000
     24 O22        -44.2250   -30.8770     0.5530 os         1 RA3      -0.420000
     25 O25        -45.1650   -34.6190     1.0100 o          1 RA3      -0.732500
     26 O26        -44.5580   -33.7720    -0.8740 o          1 RA3      -0.732500
     27 H181       -43.1100   -30.0340     6.3900 h5         1 RA3       0.041100
     28 H131       -48.1210   -28.5220     2.5730 ha         1 RA3       0.132000
     29 H121       -50.5760   -28.0670     2.7680 ha         1 RA3       0.130000
     30 H101       -50.4150   -28.7990     7.0400 ha         1 RA3       0.130000
     31 H201       -46.7640   -29.9060     1.1170 h1         1 RA3       0.060700
     32 H202       -46.9440   -30.8440     2.6000 h1         1 RA3       0.060700
     33 H022       -41.6610   -28.6910     0.9540 h1         1 RA3       0.015700
     34 H021       -42.7440   -28.8200    -0.4380 h1         1 RA3       0.015700
     35 H031       -42.9170   -30.4900     2.1290 h1         1 RA3       0.067700
     36 H042       -43.6420   -28.1420     2.5140 h1         1 RA3       0.058700
     37 H041       -44.6450   -28.1720     1.0700 h1         1 RA3       0.058700
     38 H211       -44.8030   -32.0250     2.1930 h1         1 RA3       0.066700
     39 H231       -46.3150   -31.9750    -0.4590 hc         1 RA3       0.029700
     40 H232       -46.9080   -32.7950     1.0670 hc         1 RA3       0.029700
     41 H151       -47.7750   -29.4330     7.8610 hn         1 RA3       0.361000
     42 H011       -40.8170   -29.9790    -0.8150 ho         1 RA3       0.486000
@<TRIPOS>BOND
     1     1    21 ar  
     2     1    22 ar  
     3     1    27 1   
     4     2    12 ar  
     5     2    20 1   
     6     2    21 ar  
     7     3     4 ar  
     8     3    13 ar  
     9     3    28 1   
    10     4     5 ar  
    11     4    29 1   
    12     5     6 ar  
    13     5    18 1   
    14     6    14 ar  
    15     6    30 1   
    16     7    15 1   
    17     7    19 1   
    18     7    31 1   
    19     7    32 1   
    20     8     9 1   
    21     8    23 1   
    22     8    33 1   
    23     8    34 1   
    24     9    10 1   
    25     9    24 1   
    26     9    35 1   
    27    10    19 1   
    28    10    36 1   
    29    10    37 1   
    30    11    12 ar  
    31    11    19 1   
    32    11    22 ar  
    33    12    13 1   
    34    13    14 ar  
    35    14    20 1   
    36    15    16 1   
    37    15    24 1   
    38    15    38 1   
    39    16    17 1   
    40    16    39 1   
    41    16    40 1   
    42    17    25 1   
    43    17    26 1   
    44    20    41 1   
    45    23    42 1   
@<TRIPOS>SUBSTRUCTURE
     1 RA3         1 TEMP              0 ****  ****    0 ROOT
