@<TRIPOS>MOLECULE
RA4
   70    71     1     0     0
SMALL
No Charge or Current Charge


@<TRIPOS>ATOM
      1 C26          4.3380     0.9490     0.2000 c          1 RA4       0.611700
      2 O25          4.9220     2.0230     0.2350 o          1 RA4      -0.598100
      3 C27          5.0790    -0.3750     0.2330 ca         1 RA4      -0.106600
      4 C28          6.4880    -0.3770     0.3380 ca         1 RA4      -0.085500
      5 C29          7.2120    -1.5820     0.3700 ca         1 RA4      -0.056000
      6 C30          6.5400    -2.8230     0.2960 ca         1 RA4      -0.162200
      7 C34          5.1310    -2.8280     0.1900 ca         1 RA4      -0.056000
      8 C35          4.4100    -1.6220     0.1580 ca         1 RA4      -0.085500
      9 N31          7.3090    -4.1100     0.3300 no         1 RA4       0.692200
     10 O32          8.5430    -4.0530     0.4240 o          1 RA4      -0.395000
     11 O33          6.6770    -5.1720     0.2620 o          1 RA4      -0.395000
     12 N24          2.9620     0.8880     0.1310 ns         1 RA4      -0.491900
     13 C23          2.0540     2.0550     0.0430 c3         1 RA4       0.046700
     14 C18          0.6010     1.6440     0.4600 c          1 RA4       0.604100
     15 O17          0.2960     0.4640     0.6100 o          1 RA4      -0.625100
     16 C22          2.1480     2.7730    -1.3420 c3         1 RA4      -0.081400
     17 C21          2.2210     1.8750    -2.6140 c3         1 RA4      -0.053700
     18 C19          2.4660     2.7370    -3.8740 c3         1 RA4      -0.094600
     19 C20          0.9750     0.9820    -2.8070 c3         1 RA4      -0.094600
     20 N16         -0.3740     2.6520     0.6560 n          1 RA4      -0.389800
     21 C12         -1.7980     2.3270     0.9620 c5         1 RA4       0.025700
     22 C11         -2.5510     1.4920    -0.1240 c          1 RA4       0.602100
     23 O10         -2.2590     1.3600    -1.3050 o          1 RA4      -0.599100
     24 C13         -2.4210     3.7520     1.0110 c5         1 RA4      -0.085400
     25 C14         -1.2940     4.5560     1.6990 c5         1 RA4      -0.096400
     26 C15         -0.0400     4.0710     0.9280 c5         1 RA4       0.105000
     27 N9          -3.6540     0.8910     0.4480 ns         1 RA4      -0.497900
     28 C8          -4.5900     0.0380    -0.2810 c3         1 RA4       0.105000
     29 C7          -5.7890    -0.3680     0.5970 c3         1 RA4      -0.092400
     30 C6          -6.8000    -1.2700    -0.1470 c3         1 RA4      -0.088400
     31 C5          -8.0020    -1.6760     0.7310 c3         1 RA4       0.221800
     32 N4          -8.9310    -2.5220    -0.0300 nu         1 RA4      -0.901400
     33 C2         -10.0570    -3.0120     0.4620 c2         1 RA4       0.787100
     34 N1         -10.4610    -2.8550     1.6290 n2         1 RA4      -0.892100
     35 N3         -10.5780    -3.7510    -0.4810 nv         1 RA4      -1.066200
     36 H28          7.0330     0.5630     0.3960 ha         1 RA4       0.140500
     37 H29          8.2970    -1.5390     0.4520 ha         1 RA4       0.155000
     38 H34          4.5830    -3.7670     0.1290 ha         1 RA4       0.155000
     39 H35          3.3280    -1.6790     0.0710 ha         1 RA4       0.140500
     40 H24          2.5390    -0.0310     0.1460 hn         1 RA4       0.347500
     41 H23          2.3810     2.7730     0.8050 h1         1 RA4       0.073700
     42 H221         1.3150     3.4750    -1.4560 hc         1 RA4       0.055700
     43 H222         3.0520     3.3940    -1.3240 hc         1 RA4       0.055700
     44 H21          3.0890     1.2120    -2.5190 hc         1 RA4       0.043700
     45 H191         3.3830     3.3290    -3.7690 hc         1 RA4       0.037700
     46 H192         2.5760     2.1040    -4.7630 hc         1 RA4       0.037700
     47 H193         1.6300     3.4260    -4.0460 hc         1 RA4       0.037700
     48 H201         1.0430     0.4200    -3.7460 hc         1 RA4       0.037700
     49 H202         0.8820     0.2500    -1.9970 hc         1 RA4       0.037700
     50 H203         0.0620     1.5880    -2.8380 hc         1 RA4       0.037700
     51 H12         -1.8710     1.8170     1.9320 h1         1 RA4       0.067700
     52 H131        -3.3640     3.7810     1.5690 hc         1 RA4       0.065200
     53 H132        -2.6230     4.1410     0.0050 hc         1 RA4       0.065200
     54 H141        -1.2230     4.3050     2.7650 hc         1 RA4       0.059700
     55 H142        -1.4360     5.6400     1.6270 hc         1 RA4       0.059700
     56 H151         0.8700     4.1900     1.5310 h1         1 RA4       0.058200
     57 H152         0.0820     4.6310    -0.0080 h1         1 RA4       0.058200
     58 HN9         -3.8150     1.0600     1.4330 hn         1 RA4       0.315500
     59 H81         -4.9500     0.5800    -1.1660 h1         1 RA4       0.052700
     60 H82         -4.0580    -0.8610    -0.6200 h1         1 RA4       0.052700
     61 H71         -5.4210    -0.8960     1.4860 hc         1 RA4       0.047200
     62 H72         -6.3010     0.5370     0.9460 hc         1 RA4       0.047200
     63 H61         -7.1660    -0.7410    -1.0360 hc         1 RA4       0.046700
     64 H62         -6.2850    -2.1740    -0.4960 hc         1 RA4       0.046700
     65 H51         -7.6370    -2.2160     1.6160 h1         1 RA4       0.052200
     66 H52         -8.5170    -0.7690     1.0770 h1         1 RA4       0.052200
     67 HN4         -8.5180    -3.1450    -0.7110 hn         1 RA4       0.468000
     68 HN1        -11.3240    -3.3970     1.7370 hn         1 RA4       0.377400
     69 HN31       -10.4850    -3.3020    -1.3810 hn         1 RA4       0.452000
     70 HN32       -11.5210    -4.0540    -0.2810 hn         1 RA4       0.452000
@<TRIPOS>BOND
     1     1     2 2   
     2     1     3 1   
     3     1    12 1   
     4     3     4 ar  
     5     3     8 ar  
     6     4     5 ar  
     7     4    36 1   
     8     5     6 ar  
     9     5    37 1   
    10     6     7 ar  
    11     6     9 1   
    12     7     8 ar  
    13     7    38 1   
    14     8    39 1   
    15     9    10 1   
    16     9    11 1   
    17    12    13 1   
    18    12    40 1   
    19    13    14 1   
    20    13    16 1   
    21    13    41 1   
    22    14    15 2   
    23    14    20 1   
    24    16    17 1   
    25    16    42 1   
    26    16    43 1   
    27    17    18 1   
    28    17    19 1   
    29    17    44 1   
    30    18    45 1   
    31    18    46 1   
    32    18    47 1   
    33    19    48 1   
    34    19    49 1   
    35    19    50 1   
    36    20    21 1   
    37    20    26 1   
    38    21    22 1   
    39    21    24 1   
    40    21    51 1   
    41    22    23 2   
    42    22    27 1   
    43    24    25 1   
    44    24    52 1   
    45    24    53 1   
    46    25    26 1   
    47    25    54 1   
    48    25    55 1   
    49    26    56 1   
    50    26    57 1   
    51    27    28 1   
    52    27    58 1   
    53    28    29 1   
    54    28    59 1   
    55    28    60 1   
    56    29    30 1   
    57    29    61 1   
    58    29    62 1   
    59    30    31 1   
    60    30    63 1   
    61    30    64 1   
    62    31    32 1   
    63    31    65 1   
    64    31    66 1   
    65    32    33 1   
    66    32    67 1   
    67    33    34 2   
    68    33    35 1   
    69    34    68 1   
    70    35    69 1   
    71    35    70 1   
@<TRIPOS>SUBSTRUCTURE
     1 RA4         1 TEMP              0 ****  ****    0 ROOT
