@<TRIPOS>MOLECULE
RA4
   70    71     1     0     0
SMALL
abcg2


@<TRIPOS>ATOM
      1 C26          3.9620     0.8540     0.2070 c          1 RA4       0.611700
      2 O25          4.6790     1.8430     0.2340 o          1 RA4      -0.598100
      3 C27          4.5500    -0.5220     0.2830 ca         1 RA4      -0.106600
      4 C28          5.7290    -0.7010     1.0010 ca         1 RA4      -0.085500
      5 C29          6.3250    -1.9470     1.0750 ca         1 RA4      -0.056000
      6 C30          5.7380    -3.0080     0.4030 ca         1 RA4      -0.162200
      7 C34          4.5740    -2.8530    -0.3330 ca         1 RA4      -0.056000
      8 C35          3.9830    -1.6030    -0.3860 ca         1 RA4      -0.085500
      9 N31          6.3660    -4.3220     0.4650 no         1 RA4       0.692200
     10 O32          7.3970    -4.4280     1.0840 o          1 RA4      -0.395000
     11 O33          5.8220    -5.2370    -0.1060 o          1 RA4      -0.395000
     12 N24          2.6280     0.9030     0.1100 ns         1 RA4      -0.491900
     13 C23          1.8980     2.1380    -0.0340 c3         1 RA4       0.046700
     14 C18          0.4650     1.8720     0.4220 c          1 RA4       0.604100
     15 O17          0.0600     0.7300     0.6160 o          1 RA4      -0.625100
     16 C22          2.0100     2.7370    -1.4530 c3         1 RA4      -0.081400
     17 C21          1.9790     1.7610    -2.6300 c3         1 RA4      -0.053700
     18 C19          2.2080     2.5460    -3.9200 c3         1 RA4      -0.094600
     19 C20          0.6870     0.9570    -2.7210 c3         1 RA4      -0.094600
     20 N16         -0.3220     2.9330     0.6320 n          1 RA4      -0.389800
     21 C12         -1.6810     2.7230     1.1050 c5         1 RA4       0.025700
     22 C11         -2.5160     1.9780     0.0730 c          1 RA4       0.602100
     23 O10         -2.4190     2.2170    -1.1210 o          1 RA4      -0.599100
     24 C13         -2.2150     4.1470     1.3260 c5         1 RA4      -0.085400
     25 C14         -0.9540     4.9720     1.5550 c5         1 RA4      -0.096400
     26 C15          0.0320     4.3470     0.5810 c5         1 RA4       0.105000
     27 N9          -3.4060     1.1190     0.5830 ns         1 RA4      -0.497900
     28 C8          -4.3320     0.3680    -0.2380 c3         1 RA4       0.105000
     29 C7          -5.3180    -0.3990     0.6280 c3         1 RA4      -0.092400
     30 C6          -6.3020    -1.1970    -0.2150 c3         1 RA4      -0.088400
     31 C5          -7.2900    -1.9720     0.6430 c3         1 RA4       0.221800
     32 N4          -8.1970    -2.7250    -0.1910 nu         1 RA4      -0.901400
     33 C2          -9.2700    -3.3770     0.3570 c2         1 RA4       0.787100
     34 N1          -9.5950    -3.1870     1.5830 n2         1 RA4      -0.892100
     35 N3          -9.8970    -4.2340    -0.5250 nv         1 RA4      -1.066200
     36 H28          6.1840     0.1340     1.5160 ha         1 RA4       0.140500
     37 H29          7.2320    -2.0760     1.6470 ha         1 RA4       0.155000
     38 H34          4.1300    -3.6790    -0.8680 ha         1 RA4       0.155000
     39 H35          3.0890    -1.4820    -0.9840 ha         1 RA4       0.140500
     40 H24          2.0740     0.0660     0.2260 hn         1 RA4       0.347500
     41 H23          2.3280     2.8700     0.6580 h1         1 RA4       0.073700
     42 H221         1.2220     3.4810    -1.5920 hc         1 RA4       0.055700
     43 H222         2.9500     3.2930    -1.4930 hc         1 RA4       0.055700
     44 H21          2.8110     1.0580    -2.5190 hc         1 RA4       0.043700
     45 H191         3.1470     3.1030    -3.8900 hc         1 RA4       0.037700
     46 H192         2.2470     1.8810    -4.7830 hc         1 RA4       0.037700
     47 H193         1.4030     3.2650    -4.0900 hc         1 RA4       0.037700
     48 H201         0.6590     0.3900    -3.6540 hc         1 RA4       0.037700
     49 H202         0.5800     0.2410    -1.9080 hc         1 RA4       0.037700
     50 H203        -0.1900     1.6070    -2.7010 hc         1 RA4       0.037700
     51 H12         -1.6590     2.1720     2.0510 h1         1 RA4       0.067700
     52 H131        -2.9180     4.1850     2.1560 hc         1 RA4       0.065200
     53 H132        -2.7300     4.5030     0.4310 hc         1 RA4       0.065200
     54 H141        -0.5970     4.8590     2.5800 hc         1 RA4       0.059700
     55 H142        -1.1030     6.0340     1.3620 hc         1 RA4       0.059700
     56 H151         1.0700     4.5130     0.8640 h1         1 RA4       0.058200
     57 H152        -0.1140     4.7470    -0.4260 h1         1 RA4       0.058200
     58 HN9         -3.3740     0.9140     1.5690 hn         1 RA4       0.315500
     59 H81         -4.8720     1.0540    -0.8960 h1         1 RA4       0.052700
     60 H82         -3.7860    -0.3270    -0.8830 h1         1 RA4       0.052700
     61 H71         -4.7710    -1.0750     1.2920 hc         1 RA4       0.047200
     62 H72         -5.8630     0.3020     1.2680 hc         1 RA4       0.047200
     63 H61         -6.8520    -0.5250    -0.8800 hc         1 RA4       0.046700
     64 H62         -5.7490    -1.8920    -0.8570 hc         1 RA4       0.046700
     65 H51         -6.7460    -2.6220     1.3420 h1         1 RA4       0.052200
     66 H52         -7.8710    -1.2790     1.2530 h1         1 RA4       0.052200
     67 HN4         -7.7640    -3.1920    -0.9740 hn         1 RA4       0.468000
     68 HN1        -10.4540    -3.6770     1.8050 hn         1 RA4       0.377400
     69 HN31        -9.8690    -3.9670    -1.4980 hn         1 RA4       0.452000
     70 HN32       -10.8190    -4.5320    -0.2500 hn         1 RA4       0.452000
@<TRIPOS>BOND
     1     1     2 2   
     2     1     3 1   
     3     1    12 1   
     4     3     4 ar  
     5     3     8 ar  
     6     4     5 ar  
     7     4    36 1   
     8     5     6 ar  
     9     5    37 1   
    10     6     7 ar  
    11     6     9 1   
    12     7     8 ar  
    13     7    38 1   
    14     8    39 1   
    15     9    10 1   
    16     9    11 1   
    17    12    13 1   
    18    12    40 1   
    19    13    14 1   
    20    13    16 1   
    21    13    41 1   
    22    14    15 2   
    23    14    20 1   
    24    16    17 1   
    25    16    42 1   
    26    16    43 1   
    27    17    18 1   
    28    17    19 1   
    29    17    44 1   
    30    18    45 1   
    31    18    46 1   
    32    18    47 1   
    33    19    48 1   
    34    19    49 1   
    35    19    50 1   
    36    20    21 1   
    37    20    26 1   
    38    21    22 1   
    39    21    24 1   
    40    21    51 1   
    41    22    23 2   
    42    22    27 1   
    43    24    25 1   
    44    24    52 1   
    45    24    53 1   
    46    25    26 1   
    47    25    54 1   
    48    25    55 1   
    49    26    56 1   
    50    26    57 1   
    51    27    28 1   
    52    27    58 1   
    53    28    29 1   
    54    28    59 1   
    55    28    60 1   
    56    29    30 1   
    57    29    61 1   
    58    29    62 1   
    59    30    31 1   
    60    30    63 1   
    61    30    64 1   
    62    31    32 1   
    63    31    65 1   
    64    31    66 1   
    65    32    33 1   
    66    32    67 1   
    67    33    34 2   
    68    33    35 1   
    69    34    68 1   
    70    35    69 1   
    71    35    70 1   
@<TRIPOS>SUBSTRUCTURE
     1 RA4         1 TEMP              0 ****  ****    0 ROOT
