@<TRIPOS>MOLECULE
RA5
   40    42     1     0     0
SMALL
No Charge or Current Charge


@<TRIPOS>ATOM
      1 O17         -7.1840    -0.7500    -0.7810 o          1 RA5      -0.533000
      2 S14         -6.5990     0.3920    -0.0830 sy         1 RA5       1.146600
      3 O19         -7.0030     1.7760    -0.3330 o          1 RA5      -0.533000
      4 N18         -6.9500     0.1160     1.4880 n8         1 RA5      -0.997100
      5 C14         -4.8140     0.2480    -0.0620 ca         1 RA5      -0.356500
      6 C13         -4.1960    -0.9860    -0.3450 ca         1 RA5       0.012000
      7 C12         -2.7940    -1.0920    -0.3260 ca         1 RA5      -0.174500
      8 C15         -4.0220     1.3720     0.2360 ca         1 RA5       0.012000
      9 C16         -2.6220     1.2570     0.2520 ca         1 RA5      -0.174500
     10 C11         -1.9920     0.0290    -0.0210 ca         1 RA5       0.044000
     11 N           -0.5710     0.0020     0.0110 ns         1 RA5      -0.143000
     12 C10          0.3530    -1.0310    -0.0710 c          1 RA5       0.636300
     13 O3           0.0150    -2.2040    -0.1670 o          1 RA5      -0.588100
     14 C8           1.7930    -0.6460    -0.0270 cc         1 RA5      -0.315400
     15 C9           2.7430    -1.6530    -0.1050 cd         1 RA5       0.006800
     16 C5           4.1670    -1.3460    -0.0680 ca         1 RA5      -0.141800
     17 C4           5.1370    -2.3620    -0.1460 ca         1 RA5      -0.080000
     18 C3           6.5020    -2.0320    -0.1090 ca         1 RA5      -0.094000
     19 C2           6.9050    -0.6900     0.0070 ca         1 RA5      -0.155000
     20 C7           2.2510     0.7680     0.0940 c          1 RA5       0.688300
     21 O2           1.4970     1.7260     0.1700 o          1 RA5      -0.511000
     22 O1           3.6060     0.9770     0.1220 os         1 RA5      -0.296200
     23 C6           4.5640    -0.0070     0.0470 ca         1 RA5       0.142100
     24 C1           5.9340     0.3360     0.0850 ca         1 RA5       0.132100
     25 O            6.2830     1.6720     0.2000 os         1 RA5      -0.312100
     26 C            7.6520     2.1100     0.2460 c3         1 RA5       0.143900
     27 H1          -7.5920    -0.6670     1.4040 hn         1 RA5       0.473500
     28 H2          -6.0870    -0.3090     1.8180 hn         1 RA5       0.473500
     29 H3          -4.7920    -1.8660    -0.5850 ha         1 RA5       0.135000
     30 H4          -2.3550    -2.0560    -0.5610 ha         1 RA5       0.138000
     31 H5          -4.4820     2.3350     0.4560 ha         1 RA5       0.135000
     32 H6          -2.0220     2.1350     0.4840 ha         1 RA5       0.138000
     33 H7          -0.1540     0.9180     0.1100 hn         1 RA5       0.194000
     34 H8           2.4370    -2.6940    -0.1940 ha         1 RA5       0.222000
     35 H9           4.8380    -3.4050    -0.2360 ha         1 RA5       0.130000
     36 H10          7.2510    -2.8200    -0.1690 ha         1 RA5       0.126000
     37 H11          7.9680    -0.4670     0.0330 ha         1 RA5       0.129000
     38 H12          7.6980     3.2020     0.3380 h1         1 RA5       0.047367
     39 H13          8.1720     1.6750     1.1090 h1         1 RA5       0.047367
     40 H14          8.1850     1.8240    -0.6690 h1         1 RA5       0.047367
@<TRIPOS>BOND
     1     1     2 2   
     2     2     3 2   
     3     2     4 1   
     4     2     5 1   
     5     4    27 1   
     6     4    28 1   
     7     5     6 ar  
     8     5     8 ar  
     9     6     7 ar  
    10     6    29 1   
    11     7    10 ar  
    12     7    30 1   
    13     8     9 ar  
    14     8    31 1   
    15     9    10 ar  
    16     9    32 1   
    17    10    11 1   
    18    11    12 1   
    19    11    33 1   
    20    12    13 2   
    21    12    14 1   
    22    14    15 2   
    23    14    20 1   
    24    15    16 1   
    25    15    34 1   
    26    16    17 ar  
    27    16    23 ar  
    28    17    18 ar  
    29    17    35 1   
    30    18    19 ar  
    31    18    36 1   
    32    19    24 ar  
    33    19    37 1   
    34    20    21 2   
    35    20    22 1   
    36    22    23 1   
    37    23    24 ar  
    38    24    25 1   
    39    25    26 1   
    40    26    38 1   
    41    26    39 1   
    42    26    40 1   
@<TRIPOS>SUBSTRUCTURE
     1 RA5         1 TEMP              0 ****  ****    0 ROOT
