@<TRIPOS>MOLECULE
RA5
   40    42     1     0     0
SMALL
bcc


@<TRIPOS>ATOM
      1 O17         -6.9510    -0.7060    -1.0340 o          1 RA5      -0.603800
      2 S14         -6.4570     0.3170    -0.1280 sy         1 RA5       1.288200
      3 O19         -6.8100     1.7110    -0.3420 o          1 RA5      -0.603800
      4 N18         -7.0210    -0.0760     1.3660 n8         1 RA5      -0.886700
      5 C14         -4.6920     0.2090    -0.0910 ca         1 RA5      -0.356500
      6 C13         -4.0630    -0.9840    -0.4140 ca         1 RA5      -0.006000
      7 C12         -2.6820    -1.0820    -0.3760 ca         1 RA5      -0.192500
      8 C15         -3.9420     1.3210     0.2700 ca         1 RA5      -0.006000
      9 C16         -2.5670     1.2280     0.3080 ca         1 RA5      -0.192500
     10 C11         -1.9170     0.0300    -0.0140 ca         1 RA5       0.136600
     11 N           -0.5280     0.0580     0.0320 ns         1 RA5      -0.469100
     12 C10          0.3440    -0.9700    -0.0870 c          1 RA5       0.703300
     13 O3           0.0160    -2.1320    -0.2500 o          1 RA5      -0.588100
     14 C8           1.7950    -0.6060    -0.0070 cc         1 RA5      -0.315400
     15 C9           2.7010    -1.6090    -0.0940 cd         1 RA5       0.056800
     16 C5           4.1050    -1.3640    -0.0520 ca         1 RA5      -0.141800
     17 C4           5.0700    -2.3780    -0.1410 ca         1 RA5      -0.098000
     18 C3           6.4000    -2.0360    -0.1100 ca         1 RA5      -0.112000
     19 C2           6.7980    -0.7000     0.0040 ca         1 RA5      -0.173000
     20 C7           2.2680     0.7630     0.1490 c          1 RA5       0.763800
     21 O2           1.5800     1.7520     0.2690 o          1 RA5      -0.586500
     22 O1           3.6010     0.9550     0.1610 os         1 RA5      -0.296200
     23 C6           4.5080    -0.0410     0.0670 ca         1 RA5       0.142100
     24 C1           5.8620     0.3190     0.0920 ca         1 RA5       0.132100
     25 O            6.1260     1.6250     0.1980 os         1 RA5      -0.288900
     26 C            7.4830     2.0340     0.1970 c3         1 RA5       0.120700
     27 H1          -6.8440    -1.0390     1.6280 hn         1 RA5       0.418300
     28 H2          -6.7200     0.5620     2.0940 hn         1 RA5       0.418300
     29 H3          -4.6360    -1.8520    -0.7100 ha         1 RA5       0.153000
     30 H4          -2.2190    -2.0170    -0.6420 ha         1 RA5       0.156000
     31 H5          -4.4150     2.2610     0.5200 ha         1 RA5       0.153000
     32 H6          -1.9870     2.0980     0.5880 ha         1 RA5       0.156000
     33 H7          -0.1090     0.9690     0.1930 hn         1 RA5       0.360500
     34 H8           2.3580    -2.6300    -0.2040 ha         1 RA5       0.172000
     35 H9           4.7560    -3.4090    -0.2330 ha         1 RA5       0.148000
     36 H10          7.1600    -2.8020    -0.1750 ha         1 RA5       0.144000
     37 H11          7.8560    -0.4760     0.0210 ha         1 RA5       0.147000
     38 H12          7.4750     3.1190     0.2600 h1         1 RA5       0.047367
     39 H13          8.0250     1.6330     1.0570 h1         1 RA5       0.047367
     40 H14          7.9930     1.7340    -0.7200 h1         1 RA5       0.047367
@<TRIPOS>BOND
     1     1     2 2   
     2     2     3 2   
     3     2     4 1   
     4     2     5 1   
     5     4    27 1   
     6     4    28 1   
     7     5     6 ar  
     8     5     8 ar  
     9     6     7 ar  
    10     6    29 1   
    11     7    10 ar  
    12     7    30 1   
    13     8     9 ar  
    14     8    31 1   
    15     9    10 ar  
    16     9    32 1   
    17    10    11 1   
    18    11    12 1   
    19    11    33 1   
    20    12    13 2   
    21    12    14 1   
    22    14    15 2   
    23    14    20 1   
    24    15    16 1   
    25    15    34 1   
    26    16    17 ar  
    27    16    23 ar  
    28    17    18 ar  
    29    17    35 1   
    30    18    19 ar  
    31    18    36 1   
    32    19    24 ar  
    33    19    37 1   
    34    20    21 2   
    35    20    22 1   
    36    22    23 1   
    37    23    24 ar  
    38    24    25 1   
    39    25    26 1   
    40    26    38 1   
    41    26    39 1   
    42    26    40 1   
@<TRIPOS>SUBSTRUCTURE
     1 RA5         1 TEMP              0 ****  ****    0 ROOT
