@<TRIPOS>MOLECULE
RA7
   25    26     1     0     0
SMALL
bcc


@<TRIPOS>ATOM
      1 C4          19.4000    16.2680    37.2170 c6         1 RA7       0.121900
      2 C5          17.3580    15.4900    36.4650 c6         1 RA7       0.121900
      3 C6          16.5870    16.4570    37.3430 c6         1 RA7       0.171800
      4 N1          17.4030    16.8580    38.4760 nh         1 RA7      -0.749300
      5 O1          13.5390    17.3170    42.6230 oh         1 RA7      -0.590800
      6 C1          15.3030    18.1890    41.3190 cc         1 RA7      -0.177700
      7 S           15.1000    17.3000    39.8390 ss         1 RA7      -0.229300
      8 C2          16.8200    17.4330    39.5550 cc         1 RA7       0.700300
      9 N           17.4620    18.0940    40.4730 nd         1 RA7      -0.729000
     10 C           16.6110    18.5020    41.4610 cd         1 RA7       0.395200
     11 O           18.6070    16.0130    36.0810 os         1 RA7      -0.395600
     12 C3          18.7540    17.2840    38.1360 c6         1 RA7       0.171800
     13 H1          19.5880    15.3370    37.7700 h1         1 RA7       0.056450
     14 H2          20.3610    16.6530    36.8730 h1         1 RA7       0.056450
     15 H3          16.7860    15.2890    35.5580 h1         1 RA7       0.056450
     16 H4          17.4870    14.5390    37.0000 h1         1 RA7       0.056450
     17 H5          16.2670    17.3330    36.7640 h1         1 RA7       0.060450
     18 H6          15.6890    15.9420    37.6900 h1         1 RA7       0.060450
     19 H7          14.5360    19.1060    43.0410 h1         1 RA7       0.029200
     20 H8          13.4400    19.1530    41.6640 h1         1 RA7       0.029200
     21 H9          12.7070    17.5470    43.0470 ho         1 RA7       0.404000
     22 H10         17.0080    19.0570    42.3010 h4         1 RA7       0.036100
     23 H11         19.3440    17.3700    39.0460 h1         1 RA7       0.060450
     24 H12         18.7330    18.2710    37.6580 h1         1 RA7       0.060450
     25 C7          14.1530    18.5150    42.1990 c3         1 RA7       0.223700
@<TRIPOS>BOND
     1     1    11 1   
     2     1    12 1   
     3     1    13 1   
     4     1    14 1   
     5     2     3 1   
     6     2    11 1   
     7     2    15 1   
     8     2    16 1   
     9     3     4 1   
    10     3    17 1   
    11     3    18 1   
    12     4     8 1   
    13     4    12 1   
    14     5    21 1   
    15     5    25 1   
    16     6     7 1   
    17     6    10 2   
    18     6    25 1   
    19     7     8 1   
    20     8     9 2   
    21     9    10 1   
    22    10    22 1   
    23    12    23 1   
    24    12    24 1   
    25    19    25 1   
    26    20    25 1   
@<TRIPOS>SUBSTRUCTURE
     1 RA7         1 TEMP              0 ****  ****    0 ROOT
