@<TRIPOS>MOLECULE
RA7
   25    26     1     0     0
SMALL
No Charge or Current Charge


@<TRIPOS>ATOM
      1 C4          19.4860    16.1890    37.2580 c6         1 RA7       0.145100
      2 C5          17.3760    15.5100    36.3370 c6         1 RA7       0.145100
      3 C6          16.5960    16.5500    37.1930 c6         1 RA7       0.171800
      4 N1          17.3600    16.9870    38.4100 nh         1 RA7      -0.749300
      5 O1          13.9150    17.5220    43.1990 oh         1 RA7      -0.653000
      6 C1          15.1870    18.1700    41.2810 cc         1 RA7      -0.257300
      7 S           14.9760    17.4170    39.7260 ss         1 RA7      -0.084400
      8 C2          16.7170    17.4680    39.5380 cc         1 RA7       0.700300
      9 N           17.3930    18.0010    40.5410 nd         1 RA7      -0.729000
     10 C           16.5170    18.4020    41.5400 cd         1 RA7       0.329900
     11 O           18.7150    15.9730    36.0560 os         1 RA7      -0.442000
     12 C3          18.8160    17.2650    38.1600 c6         1 RA7       0.171800
     13 H1          19.5700    15.2410    37.8100 h1         1 RA7       0.056450
     14 H2          20.5000    16.5120    36.9840 h1         1 RA7       0.056450
     15 H3          16.8470    15.3370    35.3890 h1         1 RA7       0.056450
     16 H4          17.4300    14.5510    36.8740 h1         1 RA7       0.056450
     17 H5          16.3670    17.4230    36.5660 h1         1 RA7       0.060450
     18 H6          15.6350    16.0930    37.4690 h1         1 RA7       0.060450
     19 H7          14.1650    19.4990    42.5910 h1         1 RA7       0.029200
     20 H8          13.1030    18.5200    41.5600 h1         1 RA7       0.029200
     21 H9          13.1310    17.7710    43.7360 ho         1 RA7       0.443000
     22 H10         16.9100    18.8610    42.4390 h4         1 RA7       0.036100
     23 H11         19.3810    17.3080    39.1020 h1         1 RA7       0.060450
     24 H12         18.9270    18.2480    37.6780 h1         1 RA7       0.060450
     25 C7          14.0220    18.4980    42.1620 c3         1 RA7       0.246900
@<TRIPOS>BOND
     1     1    11 1   
     2     1    12 1   
     3     1    13 1   
     4     1    14 1   
     5     2     3 1   
     6     2    11 1   
     7     2    15 1   
     8     2    16 1   
     9     3     4 1   
    10     3    17 1   
    11     3    18 1   
    12     4     8 1   
    13     4    12 1   
    14     5    21 1   
    15     5    25 1   
    16     6     7 1   
    17     6    10 2   
    18     6    25 1   
    19     7     8 1   
    20     8     9 2   
    21     9    10 1   
    22    10    22 1   
    23    12    23 1   
    24    12    24 1   
    25    19    25 1   
    26    20    25 1   
@<TRIPOS>SUBSTRUCTURE
     1 RA7         1 TEMP              0 ****  ****    0 ROOT
