@<TRIPOS>MOLECULE
RA8
   72    73     1     0     0
SMALL
abcg2


@<TRIPOS>ATOM
      1 C27          3.1880     1.3120    -0.1970 c3         1 RA8      -0.275100
      2 S26          3.9560     0.2090     1.0050 s6         1 RA8       1.176100
      3 C30          4.1570     2.3850    -0.5810 ca         1 RA8      -0.079300
      4 C31          5.0540     2.1840    -1.6270 ca         1 RA8      -0.086000
      5 C32          5.9570     3.1780    -1.9750 ca         1 RA8      -0.109500
      6 C33          5.9770     4.3780    -1.2750 ca         1 RA8      -0.100000
      7 C34          5.0880     4.5810    -0.2280 ca         1 RA8      -0.109500
      8 C35          4.1860     3.5870     0.1210 ca         1 RA8      -0.086000
      9 O15          4.2510     0.9850     2.1990 o          1 RA8      -0.525500
     10 O29          5.0310    -0.5020     0.3280 o          1 RA8      -0.525500
     11 N25          2.8380    -0.9090     1.4590 n7         1 RA8      -0.863300
     12 C19          2.3360    -1.9010     0.5240 c3         1 RA8       0.155500
     13 C18          1.0140    -1.4250    -0.0910 c          1 RA8       0.579100
     14 O24          0.4370    -0.4370     0.3470 o          1 RA8      -0.630100
     15 C20          2.2900    -3.2800     1.2030 c3         1 RA8      -0.057400
     16 C21          1.6220    -3.3690     2.5770 c3         1 RA8      -0.058700
     17 C22          1.8690    -4.7620     3.1510 c3         1 RA8      -0.093600
     18 C23          0.1270    -3.0660     2.5540 c3         1 RA8      -0.093600
     19 N16          0.5350    -2.1010    -1.1420 n          1 RA8      -0.387800
     20 C11         -0.6700    -1.6210    -1.8040 c5         1 RA8       0.024700
     21 C5          -1.8680    -1.6330    -0.8630 c          1 RA8       0.605100
     22 O12         -2.1140    -2.6000    -0.1600 o          1 RA8      -0.594100
     23 C13         -0.8530    -2.6000    -2.9690 c5         1 RA8      -0.085400
     24 C14          0.5680    -3.0670    -3.2600 c5         1 RA8      -0.097400
     25 C17          1.1620    -3.2020    -1.8670 c5         1 RA8       0.104000
     26 N10         -2.6500    -0.5500    -0.9410 ns         1 RA8      -0.494900
     27 C9          -3.8460    -0.3720    -0.1460 c3         1 RA8       0.103000
     28 C8          -4.7400     0.6970    -0.7530 c3         1 RA8      -0.092400
     29 C7          -5.9960     0.9210     0.0770 c3         1 RA8      -0.084400
     30 C6          -6.8640     2.0260    -0.5030 c3         1 RA8       0.210800
     31 N4          -8.0480     2.2220     0.3010 nu         1 RA8      -0.947400
     32 C2          -9.0040     3.1380    -0.0570 c2         1 RA8       0.787100
     33 N1          -9.0810     3.7800    -1.1630 n2         1 RA8      -0.897100
     34 N3          -9.9460     3.3520     0.9280 nv         1 RA8      -1.019200
     35 H271         2.8930     0.7020    -1.0520 h1         1 RA8       0.097200
     36 H272         2.2890     1.7100     0.2740 h1         1 RA8       0.097200
     37 H31          5.0370     1.2540    -2.1810 ha         1 RA8       0.118500
     38 H32          6.6460     3.0180    -2.7940 ha         1 RA8       0.115500
     39 H33          6.6790     5.1540    -1.5500 ha         1 RA8       0.113000
     40 H34          5.0960     5.5160     0.3180 ha         1 RA8       0.115500
     41 H35          3.4900     3.7490     0.9350 ha         1 RA8       0.118500
     42 H25          2.1290    -0.5060     2.0620 hn         1 RA8       0.503000
     43 H19          3.0640    -1.9880    -0.2880 h1         1 RA8       0.076700
     44 H201         1.8230    -4.0030     0.5300 hc         1 RA8       0.051700
     45 H202         3.3300    -3.5980     1.3100 hc         1 RA8       0.051700
     46 H21          2.1120    -2.6500     3.2420 hc         1 RA8       0.056700
     47 H221         2.9340    -4.9960     3.1880 hc         1 RA8       0.037700
     48 H222         1.4760    -4.8420     4.1660 hc         1 RA8       0.037700
     49 H223         1.3800    -5.5300     2.5470 hc         1 RA8       0.037700
     50 H231        -0.3930    -3.6910     1.8260 hc         1 RA8       0.037700
     51 H232        -0.3120    -3.2600     3.5350 hc         1 RA8       0.037700
     52 H233        -0.0910    -2.0300     2.3040 hc         1 RA8       0.037700
     53 H11         -0.4950    -0.6090    -2.1880 h1         1 RA8       0.061700
     54 H131        -1.4640    -3.4490    -2.6560 hc         1 RA8       0.068200
     55 H132        -1.3400    -2.1270    -3.8190 hc         1 RA8       0.068200
     56 H141         1.1140    -2.3140    -3.8310 hc         1 RA8       0.060200
     57 H142         0.6030    -4.0040    -3.8160 hc         1 RA8       0.060200
     58 H171         2.2490    -3.1220    -1.8630 h1         1 RA8       0.058700
     59 H172         0.8880    -4.1630    -1.4230 h1         1 RA8       0.058700
     60 H10         -2.3060     0.2500    -1.4480 hn         1 RA8       0.313500
     61 H91         -3.5840    -0.0990     0.8820 h1         1 RA8       0.055700
     62 H92         -4.3800    -1.3220    -0.0960 h1         1 RA8       0.055700
     63 H81         -5.0140     0.4050    -1.7710 hc         1 RA8       0.046200
     64 H82         -4.1840     1.6360    -0.8340 hc         1 RA8       0.046200
     65 H71         -5.7130     1.1830     1.1020 hc         1 RA8       0.051200
     66 H72         -6.5770    -0.0040     0.1370 hc         1 RA8       0.051200
     67 H61         -7.1650     1.7510    -1.5180 h1         1 RA8       0.038700
     68 H62         -6.2700     2.9460    -0.5870 h1         1 RA8       0.038700
     69 HN4         -7.9100     2.1130     1.2950 hn         1 RA8       0.471000
     70 HN1         -8.2740     3.6170    -1.7530 hn         1 RA8       0.383400
     71 HN31       -10.7570     3.8530     0.6030 hn         1 RA8       0.460000
     72 HN32       -10.1970     2.5460     1.4800 hn         1 RA8       0.460000
@<TRIPOS>BOND
     1     1     2 1   
     2     1     3 1   
     3     1    35 1   
     4     1    36 1   
     5     2     9 2   
     6     2    10 2   
     7     2    11 1   
     8     3     4 ar  
     9     3     8 ar  
    10     4     5 ar  
    11     4    37 1   
    12     5     6 ar  
    13     5    38 1   
    14     6     7 ar  
    15     6    39 1   
    16     7     8 ar  
    17     7    40 1   
    18     8    41 1   
    19    11    12 1   
    20    11    42 1   
    21    12    13 1   
    22    12    15 1   
    23    12    43 1   
    24    13    14 2   
    25    13    19 1   
    26    15    16 1   
    27    15    44 1   
    28    15    45 1   
    29    16    17 1   
    30    16    18 1   
    31    16    46 1   
    32    17    47 1   
    33    17    48 1   
    34    17    49 1   
    35    18    50 1   
    36    18    51 1   
    37    18    52 1   
    38    19    20 1   
    39    19    25 1   
    40    20    21 1   
    41    20    23 1   
    42    20    53 1   
    43    21    22 2   
    44    21    26 1   
    45    23    24 1   
    46    23    54 1   
    47    23    55 1   
    48    24    25 1   
    49    24    56 1   
    50    24    57 1   
    51    25    58 1   
    52    25    59 1   
    53    26    27 1   
    54    26    60 1   
    55    27    28 1   
    56    27    61 1   
    57    27    62 1   
    58    28    29 1   
    59    28    63 1   
    60    28    64 1   
    61    29    30 1   
    62    29    65 1   
    63    29    66 1   
    64    30    31 1   
    65    30    67 1   
    66    30    68 1   
    67    31    32 1   
    68    31    69 1   
    69    32    33 2   
    70    32    34 1   
    71    33    70 1   
    72    34    71 1   
    73    34    72 1   
@<TRIPOS>SUBSTRUCTURE
     1 RA8         1 TEMP              0 ****  ****    0 ROOT
