@<TRIPOS>MOLECULE
RA8
   72    73     1     0     0
SMALL
No Charge or Current Charge


@<TRIPOS>ATOM
      1 C27          3.5310     1.0750     0.0860 c3         1 RA8      -0.275100
      2 S26          4.4940    -0.1050     1.0510 s6         1 RA8       1.176100
      3 C30          4.3510     2.2220    -0.4900 ca         1 RA8      -0.079300
      4 C31          4.9480     2.0980    -1.7590 ca         1 RA8      -0.086000
      5 C32          5.7040     3.1570    -2.2930 ca         1 RA8      -0.109500
      6 C33          5.8650     4.3450    -1.5600 ca         1 RA8      -0.100000
      7 C34          5.2690     4.4740    -0.2940 ca         1 RA8      -0.109500
      8 C35          4.5130     3.4150     0.2390 ca         1 RA8      -0.086000
      9 O15          5.0190     0.5480     2.2520 o          1 RA8      -0.525500
     10 O29          5.3960    -0.8500     0.1700 o          1 RA8      -0.525500
     11 N25          3.3660    -1.2060     1.6040 n7         1 RA8      -0.863300
     12 C19          2.5980    -2.0490     0.6340 c3         1 RA8       0.155500
     13 C18          1.2580    -1.3810     0.1420 c          1 RA8       0.579100
     14 O24          0.7880    -0.4170     0.7390 o          1 RA8      -0.630100
     15 C20          2.4120    -3.4850     1.2140 c3         1 RA8      -0.057400
     16 C21          1.8570    -3.6350     2.6650 c3         1 RA8      -0.058700
     17 C22          1.9600    -5.1060     3.1320 c3         1 RA8      -0.093600
     18 C23          0.4080    -3.1250     2.8330 c3         1 RA8      -0.093600
     19 N16          0.6050    -1.8830    -1.0090 n          1 RA8      -0.387800
     20 C11         -0.6920    -1.3250    -1.4940 c5         1 RA8       0.024700
     21 C5          -1.8780    -1.3740    -0.4770 c          1 RA8       0.605100
     22 O12         -2.0100    -2.1180     0.4870 o          1 RA8      -0.594100
     23 C13         -1.0140    -2.2970    -2.6670 c5         1 RA8      -0.085400
     24 C14          0.3920    -2.5560    -3.2550 c5         1 RA8      -0.097400
     25 C17          1.2280    -2.8170    -1.9770 c5         1 RA8       0.104000
     26 N10         -2.8170    -0.4250    -0.8250 ns         1 RA8      -0.494900
     27 C9          -4.0610    -0.1970    -0.0930 c3         1 RA8       0.103000
     28 C8          -4.9480     0.8490    -0.7930 c3         1 RA8      -0.092400
     29 C7          -6.2740     1.1110    -0.0430 c3         1 RA8      -0.084400
     30 C6          -7.1630     2.1570    -0.7440 c3         1 RA8       0.210800
     31 N4          -8.4100     2.3580     0.0090 nu         1 RA8      -0.947400
     32 C2          -9.3490     3.2280    -0.3080 c2         1 RA8       0.787100
     33 N1          -9.5090     3.6720    -1.4540 n2         1 RA8      -0.897100
     34 N3         -10.2950     3.0440     0.5610 nv         1 RA8      -1.019200
     35 H271         3.0620     0.5060    -0.7230 h1         1 RA8       0.097200
     36 H272         2.7520     1.4610     0.7520 h1         1 RA8       0.097200
     37 H31          4.8290     1.1810    -2.3330 ha         1 RA8       0.118500
     38 H32          6.1640     3.0560    -3.2730 ha         1 RA8       0.115500
     39 H33          6.4500     5.1650    -1.9730 ha         1 RA8       0.113000
     40 H34          5.3920     5.3930     0.2740 ha         1 RA8       0.115500
     41 H35          4.0560     3.5230     1.2200 ha         1 RA8       0.118500
     42 H25          2.6990    -0.5870     2.0670 hn         1 RA8       0.503000
     43 H19          3.2050    -2.1850    -0.2690 h1         1 RA8       0.076700
     44 H201         1.7850    -4.0730     0.5350 hc         1 RA8       0.051700
     45 H202         3.3990    -3.9630     1.1870 hc         1 RA8       0.051700
     46 H21          2.4940    -3.0490     3.3400 hc         1 RA8       0.056700
     47 H221         2.9970    -5.4610     3.0770 hc         1 RA8       0.037700
     48 H222         1.6270    -5.2100     4.1710 hc         1 RA8       0.037700
     49 H223         1.3400    -5.7600     2.5060 hc         1 RA8       0.037700
     50 H231        -0.2600    -3.5980     2.1030 hc         1 RA8       0.037700
     51 H232         0.0310    -3.3560     3.8370 hc         1 RA8       0.037700
     52 H233         0.3510    -2.0400     2.7120 hc         1 RA8       0.037700
     53 H11         -0.5510    -0.2950    -1.8470 h1         1 RA8       0.061700
     54 H131        -1.4660    -3.2300    -2.3080 hc         1 RA8       0.068200
     55 H132        -1.7050    -1.8600    -3.3980 hc         1 RA8       0.068200
     56 H141         0.7630    -1.6770    -3.7950 hc         1 RA8       0.060200
     57 H142         0.4150    -3.4030    -3.9500 hc         1 RA8       0.060200
     58 H171         2.2920    -2.6120    -2.1530 h1         1 RA8       0.058700
     59 H172         1.1200    -3.8570    -1.6410 h1         1 RA8       0.058700
     60 H10         -2.6210     0.1440    -1.6400 hn         1 RA8       0.313500
     61 H91         -3.8160     0.1440     0.9220 h1         1 RA8       0.055700
     62 H92         -4.6060    -1.1480    -0.0140 h1         1 RA8       0.055700
     63 H81         -5.1710     0.5080    -1.8120 hc         1 RA8       0.046200
     64 H82         -4.3910     1.7910    -0.8820 hc         1 RA8       0.046200
     65 H71         -6.0490     1.4520     0.9750 hc         1 RA8       0.051200
     66 H72         -6.8290     0.1690     0.0450 hc         1 RA8       0.051200
     67 H61         -7.3890     1.8120    -1.7630 h1         1 RA8       0.038700
     68 H62         -6.6130     3.1060    -0.8190 h1         1 RA8       0.038700
     69 HN4         -8.3390     2.2440     1.0140 hn         1 RA8       0.471000
     70 HN1         -8.6550     3.4280    -1.9630 hn         1 RA8       0.383400
     71 HN31       -11.1510     3.4510     0.2130 hn         1 RA8       0.460000
     72 HN32       -10.3890     2.0610     0.7620 hn         1 RA8       0.460000
@<TRIPOS>BOND
     1     1     2 1   
     2     1     3 1   
     3     1    35 1   
     4     1    36 1   
     5     2     9 2   
     6     2    10 2   
     7     2    11 1   
     8     3     4 ar  
     9     3     8 ar  
    10     4     5 ar  
    11     4    37 1   
    12     5     6 ar  
    13     5    38 1   
    14     6     7 ar  
    15     6    39 1   
    16     7     8 ar  
    17     7    40 1   
    18     8    41 1   
    19    11    12 1   
    20    11    42 1   
    21    12    13 1   
    22    12    15 1   
    23    12    43 1   
    24    13    14 2   
    25    13    19 1   
    26    15    16 1   
    27    15    44 1   
    28    15    45 1   
    29    16    17 1   
    30    16    18 1   
    31    16    46 1   
    32    17    47 1   
    33    17    48 1   
    34    17    49 1   
    35    18    50 1   
    36    18    51 1   
    37    18    52 1   
    38    19    20 1   
    39    19    25 1   
    40    20    21 1   
    41    20    23 1   
    42    20    53 1   
    43    21    22 2   
    44    21    26 1   
    45    23    24 1   
    46    23    54 1   
    47    23    55 1   
    48    24    25 1   
    49    24    56 1   
    50    24    57 1   
    51    25    58 1   
    52    25    59 1   
    53    26    27 1   
    54    26    60 1   
    55    27    28 1   
    56    27    61 1   
    57    27    62 1   
    58    28    29 1   
    59    28    63 1   
    60    28    64 1   
    61    29    30 1   
    62    29    65 1   
    63    29    66 1   
    64    30    31 1   
    65    30    67 1   
    66    30    68 1   
    67    31    32 1   
    68    31    69 1   
    69    32    33 2   
    70    32    34 1   
    71    33    70 1   
    72    34    71 1   
    73    34    72 1   
@<TRIPOS>SUBSTRUCTURE
     1 RA8         1 TEMP              0 ****  ****    0 ROOT
