@<TRIPOS>MOLECULE
RA9
   32    33     1     0     0
SMALL
abcg2


@<TRIPOS>ATOM
      1 O2          -6.8090     1.4340     0.1000 o          1 RA9      -0.531500
      2 S2          -6.2650     0.0890     0.0260 sy         1 RA9       1.148600
      3 O1          -6.6730    -0.9190     0.9900 o          1 RA9      -0.531500
      4 N4          -6.6820    -0.4950    -1.4540 n8         1 RA9      -0.995100
      5 C2          -4.5020     0.2150     0.0740 ca         1 RA9      -0.354500
      6 C1          -3.8860     1.4040    -0.2950 ca         1 RA9       0.014500
      7 C3          -3.7390    -0.8790     0.4540 ca         1 RA9       0.014500
      8 C4          -2.3570    -0.8030     0.4590 ca         1 RA9      -0.175000
      9 C5          -1.7270     0.3860     0.0830 ca         1 RA9       0.037000
     10 C           -2.5090     1.4840    -0.2880 ca         1 RA9      -0.175000
     11 N           -0.3480     0.5700     0.0540 ns         1 RA9      -0.143000
     12 C6           0.6410    -0.3200     0.3180 c          1 RA9       0.622100
     13 O            0.4740    -1.4820     0.6260 o          1 RA9      -0.553100
     14 C7           2.0230     0.2840     0.2000 c3         1 RA9      -0.074400
     15 S            3.2090    -1.0710     0.3610 ss         1 RA9      -0.222300
     16 C8           4.6730    -0.1530     0.1420 cc         1 RA9       0.469700
     17 N1           4.7630     1.1150    -0.0380 nd         1 RA9      -0.316000
     18 S1           6.2120    -0.9680     0.1620 ss         1 RA9      -0.293800
     19 C9           6.9150     0.6100    -0.0920 cc         1 RA9       0.666300
     20 N2           6.0370     1.5600    -0.1690 nd         1 RA9      -0.406000
     21 N3           8.2430     0.7740    -0.2550 nv         1 RA9      -1.033900
     22 H1          -6.4280     0.1190    -2.2200 hn         1 RA9       0.474500
     23 H2          -6.3610    -1.4420    -1.6250 hn         1 RA9       0.474500
     24 H3          -4.4650     2.2700    -0.5860 ha         1 RA9       0.137500
     25 H4          -4.2080    -1.8060     0.7560 ha         1 RA9       0.137500
     26 H5          -1.7900    -1.6680     0.7600 ha         1 RA9       0.136000
     27 H6          -2.0330     2.4140    -0.5740 ha         1 RA9       0.136000
     28 H7          -0.0500     1.4960    -0.2170 hn         1 RA9       0.161000
     29 H8           2.1520     0.7900    -0.7570 h1         1 RA9       0.103200
     30 H9           2.1800     1.0220     0.9900 h1         1 RA9       0.103200
     31 H10          8.8690     0.0910     0.1380 hn         1 RA9       0.484500
     32 H11          8.5780     1.7230    -0.1980 hn         1 RA9       0.484500
@<TRIPOS>BOND
     1     1     2 2   
     2     2     3 2   
     3     2     4 1   
     4     2     5 1   
     5     4    22 1   
     6     4    23 1   
     7     5     6 ar  
     8     5     7 ar  
     9     6    10 ar  
    10     6    24 1   
    11     7     8 ar  
    12     7    25 1   
    13     8     9 ar  
    14     8    26 1   
    15     9    10 ar  
    16     9    11 1   
    17    10    27 1   
    18    11    12 1   
    19    11    28 1   
    20    12    13 2   
    21    12    14 1   
    22    14    15 1   
    23    14    29 1   
    24    14    30 1   
    25    15    16 1   
    26    16    17 2   
    27    16    18 1   
    28    17    20 1   
    29    18    19 1   
    30    19    20 2   
    31    19    21 1   
    32    21    31 1   
    33    21    32 1   
@<TRIPOS>SUBSTRUCTURE
     1 RA9         1 TEMP              0 ****  ****    0 ROOT
