@<TRIPOS>MOLECULE
RA9
   32    33     1     0     0
SMALL
No Charge or Current Charge


@<TRIPOS>ATOM
      1 O2          -6.9140     1.5970     0.2450 o          1 RA9      -0.531500
      2 S2          -6.3830     0.2460     0.0640 sy         1 RA9       1.148600
      3 O1          -6.8660    -0.9090     0.8160 o          1 RA9      -0.531500
      4 N4          -6.6960    -0.1360    -1.4920 n8         1 RA9      -0.995100
      5 C2          -4.5930     0.2670     0.0550 ca         1 RA9      -0.354500
      6 C1          -3.9060     1.4420    -0.3010 ca         1 RA9       0.014500
      7 C3          -3.8660    -0.8880     0.4040 ca         1 RA9       0.014500
      8 C4          -2.4600    -0.8650     0.3940 ca         1 RA9      -0.175000
      9 C5          -1.7630     0.3100     0.0370 ca         1 RA9       0.037000
     10 C           -2.5010     1.4570    -0.3070 ca         1 RA9      -0.175000
     11 N           -0.3440     0.4090     0.0060 ns         1 RA9      -0.143000
     12 C6           0.6650    -0.5120     0.2540 c          1 RA9       0.622100
     13 O            0.4710    -1.6810     0.5670 o          1 RA9      -0.553100
     14 C7           2.0760     0.0770     0.0960 c3         1 RA9      -0.074400
     15 S            3.4490    -1.1420     0.4310 ss         1 RA9      -0.222300
     16 C8           4.9090    -0.1870     0.1730 cc         1 RA9       0.469700
     17 N1           4.8380     1.0900    -0.1730 nd         1 RA9      -0.316000
     18 S1           6.4910    -0.8670     0.3620 ss         1 RA9      -0.293800
     19 C9           7.0310     0.7140    -0.0700 cc         1 RA9       0.666300
     20 N2           6.1080     1.6230    -0.3160 nd         1 RA9      -0.406000
     21 N3           8.3370     1.0190    -0.1480 nv         1 RA9      -1.033900
     22 H1          -5.7990    -0.5030    -1.7980 hn         1 RA9       0.474500
     23 H2          -7.2720    -0.9660    -1.3720 hn         1 RA9       0.474500
     24 H3          -4.4520     2.3450    -0.5740 ha         1 RA9       0.137500
     25 H4          -4.3800    -1.8070     0.6860 ha         1 RA9       0.137500
     26 H5          -1.9360    -1.7730     0.6720 ha         1 RA9       0.136000
     27 H6          -1.9840     2.3730    -0.5850 ha         1 RA9       0.136000
     28 H7          -0.0090     1.3300    -0.2450 hn         1 RA9       0.161000
     29 H8           2.1670     0.4560    -0.9290 h1         1 RA9       0.103200
     30 H9           2.1640     0.9240     0.7880 h1         1 RA9       0.103200
     31 H10          8.9820     0.3980     0.3280 hn         1 RA9       0.484500
     32 H11          8.5710     2.0060    -0.1450 hn         1 RA9       0.484500
@<TRIPOS>BOND
     1     1     2 2   
     2     2     3 2   
     3     2     4 1   
     4     2     5 1   
     5     4    22 1   
     6     4    23 1   
     7     5     6 ar  
     8     5     7 ar  
     9     6    10 ar  
    10     6    24 1   
    11     7     8 ar  
    12     7    25 1   
    13     8     9 ar  
    14     8    26 1   
    15     9    10 ar  
    16     9    11 1   
    17    10    27 1   
    18    11    12 1   
    19    11    28 1   
    20    12    13 2   
    21    12    14 1   
    22    14    15 1   
    23    14    29 1   
    24    14    30 1   
    25    15    16 1   
    26    16    17 2   
    27    16    18 1   
    28    17    20 1   
    29    18    19 1   
    30    19    20 2   
    31    19    21 1   
    32    21    31 1   
    33    21    32 1   
@<TRIPOS>SUBSTRUCTURE
     1 RA9         1 TEMP              0 ****  ****    0 ROOT
