@<TRIPOS>MOLECULE
RAB
   32    34     1     0     0
SMALL
No Charge or Current Charge


@<TRIPOS>ATOM
      1 O5          -4.5320     1.7810    -1.3860 oh         1 RAB      -0.699000
      2 C5          -4.0060     1.2390    -0.1610 c3         1 RAB       0.168600
      3 C4          -3.1170    -0.0070    -0.4310 c5         1 RAB       0.125300
      4 O4          -1.8710     0.3850    -1.0640 os         1 RAB      -0.431000
      5 C1          -0.8590    -0.6160    -0.7760 c5         1 RAB       0.320300
      6 N9           0.3180     0.0640    -0.2370 na         1 RAB      -0.287300
      7 C9           1.6390    -0.2500    -0.4190 ca         1 RAB       0.142500
      8 N3           2.2200    -1.2320    -1.1390 nb         1 RAB      -0.221000
      9 C2           3.5730    -1.2650    -1.1130 ca         1 RAB       0.180900
     10 N1           4.3900    -0.4170    -0.4430 nb         1 RAB      -0.303000
     11 C6           3.7820     0.5470     0.2650 ca         1 RAB       0.448900
     12 N6           4.6020     1.4010     0.9350 nv         1 RAB      -1.063900
     13 C7           2.3760     0.6610     0.2950 ca         1 RAB      -0.097600
     14 N7           1.5790     1.5900     0.9550 nc         1 RAB      -0.559100
     15 C8           0.3410     1.1900     0.6060 cd         1 RAB       0.416700
     16 C10         -1.5650    -1.6640     0.1650 c5         1 RAB       0.131300
     17 O2          -0.7230    -2.3220     1.1290 oh         1 RAB      -0.684000
     18 C3          -2.6390    -0.7670     0.8390 c5         1 RAB       0.093300
     19 O3          -3.6550    -1.5450     1.4940 oh         1 RAB      -0.704000
     20 H5          -5.0320     2.5970    -1.1490 ho         1 RAB       0.508000
     21 H5'1        -4.8330     0.9450     0.4980 h1         1 RAB       0.021700
     22 H5'2        -3.4100     1.9940     0.3690 h1         1 RAB       0.021700
     23 H4          -3.6590    -0.6860    -1.1050 h1         1 RAB       0.082700
     24 H1          -0.5330    -1.1050    -1.7030 h2         1 RAB       0.117700
     25 H2           4.0530    -2.0520    -1.6910 h5         1 RAB       0.044100
     26 HN61         5.5740     1.4540     0.6440 hn         1 RAB       0.504000
     27 HN62         4.1830     2.2570     1.2910 hn         1 RAB       0.504000
     28 H8          -0.5800     1.6660     0.9220 h5         1 RAB       0.061800
     29 H7          -2.0600    -2.4210    -0.4620 h1         1 RAB       0.065700
     30 H6          -1.3370    -2.7200     1.7920 ho         1 RAB       0.521000
     31 H3          -2.1720    -0.0710     1.5520 h1         1 RAB       0.056700
     32 H9          -4.1840    -0.9360     2.0630 ho         1 RAB       0.514000
@<TRIPOS>BOND
     1     1     2 1   
     2     1    20 1   
     3     2     3 1   
     4     2    21 1   
     5     2    22 1   
     6     3     4 1   
     7     3    18 1   
     8     3    23 1   
     9     4     5 1   
    10     5     6 1   
    11     5    16 1   
    12     5    24 1   
    13     6     7 1   
    14     6    15 1   
    15     7     8 ar  
    16     7    13 ar  
    17     8     9 ar  
    18     9    10 ar  
    19     9    25 1   
    20    10    11 ar  
    21    11    12 1   
    22    11    13 ar  
    23    12    26 1   
    24    12    27 1   
    25    13    14 1   
    26    14    15 2   
    27    15    28 1   
    28    16    17 1   
    29    16    18 1   
    30    16    29 1   
    31    17    30 1   
    32    18    19 1   
    33    18    31 1   
    34    19    32 1   
@<TRIPOS>SUBSTRUCTURE
     1 RAB         1 TEMP              0 ****  ****    0 ROOT
