@<TRIPOS>MOLECULE
RAB
   32    34     1     0     0
SMALL
bcc


@<TRIPOS>ATOM
      1 O5          -4.2720     1.8630    -1.2830 oh         1 RAB      -0.576800
      2 C5          -3.8230     1.2630    -0.0950 c3         1 RAB       0.145400
      3 C4          -3.1110    -0.0250    -0.4240 c5         1 RAB       0.102100
      4 O4          -1.9200     0.2460    -1.1660 os         1 RAB      -0.384600
      5 C1          -0.8980    -0.6370    -0.8160 c5         1 RAB       0.267800
      6 N9           0.2330     0.1160    -0.3100 na         1 RAB      -0.258000
      7 C9           1.5420    -0.2440    -0.4400 ca         1 RAB       0.470800
      8 N3           2.0510    -1.2790    -1.1040 nb         1 RAB      -0.747000
      9 C2           3.3700    -1.3040    -1.0310 ca         1 RAB       0.706900
     10 N1           4.1810    -0.4590    -0.4000 nb         1 RAB      -0.829000
     11 C6           3.6540     0.5770     0.2630 ca         1 RAB       0.777200
     12 N6           4.4630     1.4210     0.9070 nv         1 RAB      -0.953500
     13 C7           2.2540     0.7180     0.2590 ca         1 RAB      -0.228200
     14 N7           1.4090     1.6450     0.8090 nc         1 RAB      -0.559100
     15 C8           0.2220     1.2500     0.4530 cd         1 RAB       0.416700
     16 C10         -1.4830    -1.5970     0.2340 c5         1 RAB       0.108100
     17 O2          -0.5020    -1.9870     1.1430 oh         1 RAB      -0.561800
     18 C3          -2.6420    -0.7950     0.8090 c5         1 RAB       0.070100
     19 O3          -3.6030    -1.6480     1.3630 oh         1 RAB      -0.581800
     20 H5          -4.7020     2.6920    -1.0560 ho         1 RAB       0.409000
     21 H5'1        -4.6540     1.0180     0.5800 h1         1 RAB       0.021700
     22 H5'2        -3.1430     1.9180     0.4670 h1         1 RAB       0.021700
     23 H4          -3.7730    -0.6700    -1.0170 h1         1 RAB       0.082700
     24 H1          -0.5320    -1.1800    -1.6900 h2         1 RAB       0.117700
     25 H2           3.8620    -2.1190    -1.5530 h5         1 RAB       0.044100
     26 HN61         5.4610     1.3320     0.8130 hn         1 RAB       0.448800
     27 HN62         4.1020     2.2520     1.3390 hn         1 RAB       0.448800
     28 H8          -0.6930     1.7660     0.7010 h5         1 RAB       0.061800
     29 H7          -1.9020    -2.4580    -0.3050 h1         1 RAB       0.065700
     30 H6          -0.8220    -2.7550     1.6260 ho         1 RAB       0.422000
     31 H3          -2.2550    -0.0930     1.5630 h1         1 RAB       0.056700
     32 H9          -4.2120    -1.1290     1.8970 ho         1 RAB       0.415000
@<TRIPOS>BOND
     1     1     2 1   
     2     1    20 1   
     3     2     3 1   
     4     2    21 1   
     5     2    22 1   
     6     3     4 1   
     7     3    18 1   
     8     3    23 1   
     9     4     5 1   
    10     5     6 1   
    11     5    16 1   
    12     5    24 1   
    13     6     7 1   
    14     6    15 1   
    15     7     8 ar  
    16     7    13 ar  
    17     8     9 ar  
    18     9    10 ar  
    19     9    25 1   
    20    10    11 ar  
    21    11    12 1   
    22    11    13 ar  
    23    12    26 1   
    24    12    27 1   
    25    13    14 1   
    26    14    15 2   
    27    15    28 1   
    28    16    17 1   
    29    16    18 1   
    30    16    29 1   
    31    17    30 1   
    32    18    19 1   
    33    18    31 1   
    34    19    32 1   
@<TRIPOS>SUBSTRUCTURE
     1 RAB         1 TEMP              0 ****  ****    0 ROOT
