@<TRIPOS>MOLECULE
RAC
   42    43     1     0     0
SMALL
No Charge or Current Charge


@<TRIPOS>ATOM
      1 C1          -1.4070    -0.4020     6.3310 ca         1 RAC      -0.134000
      2 C2          -0.1290    -0.4710     5.7590 ca         1 RAC      -0.069000
      3 C3           0.0450    -0.3530     4.3630 ca         1 RAC      -0.172600
      4 C4          -1.0950    -0.2140     3.5250 ca         1 RAC       0.021000
      5 C5          -2.3770    -0.1430     4.1190 ca         1 RAC      -0.111000
      6 C6          -2.5300    -0.2290     5.5120 ca         1 RAC      -0.088000
      7 C7           1.4550    -0.4310     3.8210 c          1 RAC       0.615700
      8 N1           1.8630     0.5050     2.8410 n          1 RAC      -0.408800
      9 C8           3.1600     0.3270     2.1540 c3         1 RAC       0.082800
     10 C9           1.2940     1.8740     2.8110 c3         1 RAC       0.082800
     11 O1           2.2030    -1.3340     4.1760 o          1 RAC      -0.581100
     12 N2          -0.9190    -0.2010     2.1110 ns         1 RAC      -0.169000
     13 C10         -1.8040    -0.1090     1.0550 c          1 RAC       0.646100
     14 O2          -3.0230    -0.0250     1.1250 o          1 RAC      -0.538000
     15 O3          -1.0910    -0.1160    -0.1090 os         1 RAC      -0.447100
     16 C11         -1.8200    -0.0150    -1.3400 c3         1 RAC       0.241900
     17 C12         -0.8190    -0.0330    -2.4880 ca         1 RAC      -0.147300
     18 C13         -0.4720    -1.2440    -3.1140 ca         1 RAC      -0.114000
     19 C14          0.4520    -1.2600    -4.1730 ca         1 RAC      -0.096500
     20 C15          1.0520    -0.0630    -4.6300 ca         1 RAC      -0.115600
     21 C16          0.6980     1.1500    -3.9920 ca         1 RAC      -0.096500
     22 C17         -0.2270     1.1630    -2.9330 ca         1 RAC      -0.114000
     23 C18          2.0530    -0.0790    -5.7770 c          1 RAC       0.711600
     24 O4           2.5460     0.9800    -6.1400 o          1 RAC      -0.717500
     25 O5           2.3300    -1.1500    -6.2980 o          1 RAC      -0.717500
     26 HC1         -1.5270    -0.4810     7.4090 ha         1 RAC       0.111000
     27 HC2          0.7360    -0.6010     6.4060 ha         1 RAC       0.116000
     28 HC5         -3.2730    -0.0310     3.5190 ha         1 RAC       0.135000
     29 HC6         -3.5220    -0.1760     5.9540 ha         1 RAC       0.112000
     30 HC81         3.9820     0.5220     2.8550 h1         1 RAC       0.043700
     31 HC82         3.2450    -0.6990     1.7740 h1         1 RAC       0.043700
     32 HC83         3.2380     1.0220     1.3070 h1         1 RAC       0.043700
     33 HC91         0.6850     2.0040     1.9070 h1         1 RAC       0.043700
     34 HC92         0.6730     2.0630     3.6960 h1         1 RAC       0.043700
     35 HC93         2.1050     2.6140     2.7970 h1         1 RAC       0.043700
     36 HN2          0.0460    -0.2560     1.8170 hn         1 RAC       0.176000
     37 H111        -2.5200    -0.8550    -1.4480 h1         1 RAC       0.044700
     38 H112        -2.4010     0.9160    -1.3750 h1         1 RAC       0.044700
     39 H13C        -0.9190    -2.1780    -2.7790 ha         1 RAC       0.089000
     40 H14C         0.7010    -2.2110    -4.6390 ha         1 RAC       0.129500
     41 H16C         1.1400     2.0890    -4.3160 ha         1 RAC       0.129500
     42 H17C        -0.4820     2.1070    -2.4570 ha         1 RAC       0.089000
@<TRIPOS>BOND
     1     1     2 ar  
     2     1     6 ar  
     3     1    26 1   
     4     2     3 ar  
     5     2    27 1   
     6     3     4 ar  
     7     3     7 1   
     8     4     5 ar  
     9     4    12 1   
    10     5     6 ar  
    11     5    28 1   
    12     6    29 1   
    13     7     8 1   
    14     7    11 2   
    15     8     9 1   
    16     8    10 1   
    17     9    30 1   
    18     9    31 1   
    19     9    32 1   
    20    10    33 1   
    21    10    34 1   
    22    10    35 1   
    23    12    13 1   
    24    12    36 1   
    25    13    14 2   
    26    13    15 1   
    27    15    16 1   
    28    16    17 1   
    29    16    37 1   
    30    16    38 1   
    31    17    18 ar  
    32    17    22 ar  
    33    18    19 ar  
    34    18    39 1   
    35    19    20 ar  
    36    19    40 1   
    37    20    21 ar  
    38    20    23 1   
    39    21    22 ar  
    40    21    41 1   
    41    22    42 1   
    42    23    24 1   
    43    23    25 1   
@<TRIPOS>SUBSTRUCTURE
     1 RAC         1 TEMP              0 ****  ****    0 ROOT
