@<TRIPOS>MOLECULE
RAC
   42    43     1     0     0
SMALL
abcg2


@<TRIPOS>ATOM
      1 C1          -1.6800     0.1290     5.9980 ca         1 RAC      -0.134000
      2 C2          -0.4280    -0.2300     5.5250 ca         1 RAC      -0.069000
      3 C3          -0.1540    -0.1940     4.1630 ca         1 RAC      -0.172600
      4 C4          -1.1430     0.2110     3.2670 ca         1 RAC       0.021000
      5 C5          -2.3970     0.5790     3.7440 ca         1 RAC      -0.111000
      6 C6          -2.6640     0.5270     5.1030 ca         1 RAC      -0.088000
      7 C7           1.1540    -0.7280     3.6550 c          1 RAC       0.615700
      8 N1           2.1010     0.1650     3.3190 n          1 RAC      -0.408800
      9 C8           3.3860    -0.2860     2.8240 c3         1 RAC       0.082800
     10 C9           2.0400     1.5780     3.6350 c3         1 RAC       0.082800
     11 O1           1.2940    -1.9380     3.5450 o          1 RAC      -0.581100
     12 N2          -0.8420     0.2720     1.8940 ns         1 RAC      -0.169000
     13 C10         -1.5890    -0.3280     0.9310 c          1 RAC       0.646100
     14 O2          -2.6060    -0.9540     1.1250 o          1 RAC      -0.538000
     15 O3          -1.0320    -0.1350    -0.2620 os         1 RAC      -0.447100
     16 C11         -1.6830    -0.7270    -1.3960 c3         1 RAC       0.241900
     17 C12         -0.8520    -0.3920    -2.5950 ca         1 RAC      -0.147300
     18 C13          0.0470    -1.3160    -3.1180 ca         1 RAC      -0.114000
     19 C14          0.8420    -0.9890    -4.2060 ca         1 RAC      -0.096500
     20 C15          0.7600     0.2680    -4.7990 ca         1 RAC      -0.115600
     21 C16         -0.1450     1.1880    -4.2750 ca         1 RAC      -0.096500
     22 C17         -0.9410     0.8640    -3.1880 ca         1 RAC      -0.114000
     23 C18          1.6400     0.6290    -5.9910 c          1 RAC       0.711600
     24 O4           1.4920     1.7710    -6.4660 o          1 RAC      -0.717500
     25 O5           2.4340    -0.2470    -6.3820 o          1 RAC      -0.717500
     26 HC1         -1.8860     0.0980     7.0590 ha         1 RAC       0.111000
     27 HC2          0.3430    -0.5440     6.2190 ha         1 RAC       0.116000
     28 HC5         -3.1590     0.9200     3.0570 ha         1 RAC       0.135000
     29 HC6         -3.6410     0.8190     5.4650 ha         1 RAC       0.112000
     30 HC81         4.1370    -0.2710     3.6160 h1         1 RAC       0.043700
     31 HC82         3.3160    -1.2960     2.4300 h1         1 RAC       0.043700
     32 HC83         3.7160     0.3790     2.0270 h1         1 RAC       0.043700
     33 HC91         1.0500     1.8740     3.9670 h1         1 RAC       0.043700
     34 HC92         2.7510     1.8230     4.4280 h1         1 RAC       0.043700
     35 HC93         2.2990     2.1660     2.7540 h1         1 RAC       0.043700
     36 HN2          0.0380     0.6790     1.6140 hn         1 RAC       0.176000
     37 H111        -1.7580    -1.8080    -1.2620 h1         1 RAC       0.044700
     38 H112        -2.6930    -0.3240    -1.4940 h1         1 RAC       0.044700
     39 H13C         0.1270    -2.3000    -2.6690 ha         1 RAC       0.089000
     40 H14C         1.5350    -1.7190    -4.6030 ha         1 RAC       0.129500
     41 H16C        -0.2250     2.1700    -4.7240 ha         1 RAC       0.129500
     42 H17C        -1.6400     1.5950    -2.7970 ha         1 RAC       0.089000
@<TRIPOS>BOND
     1     1     2 ar  
     2     1     6 ar  
     3     1    26 1   
     4     2     3 ar  
     5     2    27 1   
     6     3     4 ar  
     7     3     7 1   
     8     4     5 ar  
     9     4    12 1   
    10     5     6 ar  
    11     5    28 1   
    12     6    29 1   
    13     7     8 1   
    14     7    11 2   
    15     8     9 1   
    16     8    10 1   
    17     9    30 1   
    18     9    31 1   
    19     9    32 1   
    20    10    33 1   
    21    10    34 1   
    22    10    35 1   
    23    12    13 1   
    24    12    36 1   
    25    13    14 2   
    26    13    15 1   
    27    15    16 1   
    28    16    17 1   
    29    16    37 1   
    30    16    38 1   
    31    17    18 ar  
    32    17    22 ar  
    33    18    19 ar  
    34    18    39 1   
    35    19    20 ar  
    36    19    40 1   
    37    20    21 ar  
    38    20    23 1   
    39    21    22 ar  
    40    21    41 1   
    41    22    42 1   
    42    23    24 1   
    43    23    25 1   
@<TRIPOS>SUBSTRUCTURE
     1 RAC         1 TEMP              0 ****  ****    0 ROOT
