@<TRIPOS>MOLECULE
RAE
   22    22     1     0     0
SMALL
abcg2


@<TRIPOS>ATOM
      1 C1          -6.3350    21.9070    32.5200 c6         1 RAE       0.385300
      2 C2          -7.4870    22.8390    32.1790 c6         1 RAE      -0.098400
      3 C3          -7.6810    23.8990    33.2490 c6         1 RAE       0.179300
      4 O3          -8.6810    24.7900    32.8120 oh         1 RAE      -0.661000
      5 C4          -6.3580    24.6120    33.4940 c6         1 RAE       0.100300
      6 O4          -6.5560    25.5220    34.5550 oh         1 RAE      -0.725000
      7 C5          -5.2610    23.5960    33.8280 c6         1 RAE       0.147300
      8 O5          -5.1610    22.6270    32.7930 os         1 RAE      -0.487000
      9 C6          -3.8950    24.2400    33.9680 c3         1 RAE      -0.092100
     10 O1          -6.7240    21.1000    33.5900 oh         1 RAE      -0.677000
     11 H1          -6.0820    21.2970    31.6450 h2         1 RAE       0.064700
     12 H21         -7.2590    23.3260    31.2270 hc         1 RAE       0.070700
     13 H22         -8.4010    22.2600    32.0320 hc         1 RAE       0.070700
     14 H3          -7.9820    23.4150    34.1910 h1         1 RAE       0.058700
     15 HO3         -8.7760    25.4760    33.4800 ho         1 RAE       0.457000
     16 H4          -6.0770    25.1370    32.5680 h1         1 RAE       0.049700
     17 HO4         -5.9160    26.2360    34.4800 ho         1 RAE       0.509000
     18 H5          -5.5230    23.1110    34.7790 h1         1 RAE       0.057700
     19 H61         -3.1340    23.4870    34.1730 hc         1 RAE       0.044367
     20 H62         -3.6140    24.7740    33.0580 hc         1 RAE       0.044367
     21 H63         -3.8810    24.9460    34.7970 hc         1 RAE       0.044367
     22 HO1         -6.0480    20.4280    33.7340 ho         1 RAE       0.454000
@<TRIPOS>BOND
     1     1     2 1   
     2     1     8 1   
     3     1    10 1   
     4     1    11 1   
     5     2     3 1   
     6     2    12 1   
     7     2    13 1   
     8     3     4 1   
     9     3     5 1   
    10     3    14 1   
    11     4    15 1   
    12     5     6 1   
    13     5     7 1   
    14     5    16 1   
    15     6    17 1   
    16     7     8 1   
    17     7     9 1   
    18     7    18 1   
    19     9    19 1   
    20     9    20 1   
    21     9    21 1   
    22    10    22 1   
@<TRIPOS>SUBSTRUCTURE
     1 RAE         1 TEMP              0 ****  ****    0 ROOT
