@<TRIPOS>MOLECULE
RAE
   22    22     1     0     0
SMALL
No Charge or Current Charge


@<TRIPOS>ATOM
      1 C1          -6.3600    21.8660    32.4720 c6         1 RAE       0.385300
      2 C2          -7.5410    22.8060    32.1310 c6         1 RAE      -0.098400
      3 C3          -7.7360    23.8780    33.2280 c6         1 RAE       0.179300
      4 O3          -8.7590    24.8080    32.8490 oh         1 RAE      -0.661000
      5 C4          -6.4050    24.6410    33.4910 c6         1 RAE       0.100300
      6 O4          -6.5930    25.6190    34.5390 oh         1 RAE      -0.725000
      7 C5          -5.2940    23.6000    33.8390 c6         1 RAE       0.147300
      8 O5          -5.1760    22.6300    32.7660 os         1 RAE      -0.487000
      9 C6          -3.8910    24.2370    34.0050 c3         1 RAE      -0.092100
     10 O1          -6.6450    21.0640    33.6090 oh         1 RAE      -0.677000
     11 H1          -6.1620    21.2150    31.6050 h2         1 RAE       0.064700
     12 H21         -7.3460    23.2890    31.1650 hc         1 RAE       0.070700
     13 H22         -8.4600    22.2180    32.0090 hc         1 RAE       0.070700
     14 H3          -8.0270    23.3690    34.1600 h1         1 RAE       0.058700
     15 HO3         -8.5990    25.5900    33.4270 ho         1 RAE       0.457000
     16 H4          -6.1120    25.1480    32.5590 h1         1 RAE       0.049700
     17 HO4         -5.7790    26.1760    34.5710 ho         1 RAE       0.509000
     18 H5          -5.5510    23.0810    34.7750 h1         1 RAE       0.057700
     19 H61         -3.1310    23.4670    34.1800 hc         1 RAE       0.044367
     20 H62         -3.6000    24.8000    33.1100 hc         1 RAE       0.044367
     21 H63         -3.8620    24.9230    34.8600 hc         1 RAE       0.044367
     22 HO1         -5.8030    20.6010    33.8020 ho         1 RAE       0.454000
@<TRIPOS>BOND
     1     1     2 1   
     2     1     8 1   
     3     1    10 1   
     4     1    11 1   
     5     2     3 1   
     6     2    12 1   
     7     2    13 1   
     8     3     4 1   
     9     3     5 1   
    10     3    14 1   
    11     4    15 1   
    12     5     6 1   
    13     5     7 1   
    14     5    16 1   
    15     6    17 1   
    16     7     8 1   
    17     7     9 1   
    18     7    18 1   
    19     9    19 1   
    20     9    20 1   
    21     9    21 1   
    22    10    22 1   
@<TRIPOS>SUBSTRUCTURE
     1 RAE         1 TEMP              0 ****  ****    0 ROOT
