@<TRIPOS>MOLECULE
RAG
   87    88     1     0     0
SMALL
No Charge or Current Charge


@<TRIPOS>ATOM
      1 C26         89.7070    67.0390    -5.8830 c3         1 RAG       0.114300
      2 N25         90.2500    68.3930    -5.7600 ns         1 RAG      -0.539900
      3 C24         90.9480    68.8440    -4.6710 c          1 RAG       0.674100
      4 O28         91.1710    68.1460    -3.6950 o          1 RAG      -0.589100
      5 N23         91.3350    70.1400    -4.8080 ns         1 RAG      -0.472400
      6 C22         92.0760    70.8830    -3.9430 c2         1 RAG       0.704800
      7 N27         92.9930    70.5090    -3.1700 n2         1 RAG      -0.842100
      8 N21         91.9000    72.1980    -4.1800 nu         1 RAG      -0.991400
      9 C20         92.9700    73.1180    -4.6010 c3         1 RAG       0.228800
     10 C19         93.4500    72.7820    -6.0280 c3         1 RAG      -0.104400
     11 C18         94.5560    73.7400    -6.5340 c3         1 RAG      -0.089400
     12 C17         94.9810    73.4860    -8.0010 c3         1 RAG       0.047700
     13 C30         96.0370    74.5420    -8.4760 c          1 RAG       0.585100
     14 O29         97.1240    74.6100    -7.9090 o          1 RAG      -0.599100
     15 N32         95.7270    75.4760    -9.5050 n          1 RAG      -0.387800
     16 C31         96.6460    76.6180    -9.7370 c3         1 RAG       0.080300
     17 N16         95.5430    72.1280    -8.1360 ns         1 RAG      -0.492900
     18 C15         95.7260    71.4700    -9.3330 c          1 RAG       0.597100
     19 O14         95.4170    71.9780   -10.4050 o          1 RAG      -0.580100
     20 C13         96.3610    70.0560    -9.1950 c3         1 RAG       0.050700
     21 C12         95.2930    68.9870    -8.8820 c3         1 RAG      -0.104100
     22 N11         97.1050    69.6880   -10.4130 ns         1 RAG      -0.509900
     23 C58         98.3550    70.1720   -10.7250 c          1 RAG       0.599100
     24 O57         98.9610    70.9340    -9.9850 o          1 RAG      -0.604100
     25 C56         98.9470    69.6560   -12.0360 c3         1 RAG      -0.140400
     26 C54         98.9710    70.7500   -13.1330 c3         1 RAG      -0.033300
     27 C53         99.7240    70.2540   -14.4110 c          1 RAG       0.714000
     28 O52        100.8530    70.6780   -14.6170 o          1 RAG      -0.727500
     29 O55         99.1530    69.4760   -15.1660 o          1 RAG      -0.727500
     30 N51         97.6030    71.2260   -13.4570 ns         1 RAG      -0.478900
     31 C50         97.3250    72.3500   -14.2040 c          1 RAG       0.612100
     32 O49         98.2020    73.1080   -14.5950 o          1 RAG      -0.633100
     33 C48         95.8510    72.5340   -14.5750 c3         1 RAG      -0.157400
     34 C45         95.2620    73.9010   -14.1440 c3         1 RAG      -0.027300
     35 C46         93.8830    74.1660   -14.8250 c          1 RAG       0.718000
     36 O44         93.8320    74.9890   -15.7290 o          1 RAG      -0.735000
     37 O47         92.8960    73.5840   -14.3950 o          1 RAG      -0.735000
     38 N43         95.1430    74.0450   -12.6720 ns         1 RAG      -0.420900
     39 C42         95.1740    75.2600   -12.0130 c          1 RAG       0.588100
     40 O41         95.5060    76.2920   -12.5860 o          1 RAG      -0.639100
     41 C40         94.6650    75.2280   -10.5400 c3         1 RAG       0.029700
     42 C39         93.4580    76.1900   -10.3820 c3         1 RAG      -0.045100
     43 C38         92.7760    76.1080    -9.0230 ca         1 RAG      -0.054300
     44 C33         93.1240    77.0100    -7.9980 ca         1 RAG      -0.107000
     45 C34         92.4690    76.9590    -6.7550 ca         1 RAG      -0.121000
     46 C35         91.4630    76.0050    -6.5300 ca         1 RAG      -0.139000
     47 C36         91.1130    75.1020    -7.5470 ca         1 RAG      -0.121000
     48 C37         91.7680    75.1520    -8.7900 ca         1 RAG      -0.107000
     49 H261        89.1960    66.9350    -6.8480 h1         1 RAG       0.034700
     50 H262        90.5240    66.3070    -5.8240 h1         1 RAG       0.034700
     51 H263        88.9910    66.8530    -5.0720 h1         1 RAG       0.034700
     52 H25         90.1070    69.0380    -6.5270 hn         1 RAG       0.309500
     53 H23         91.0480    70.6080    -5.6480 hn         1 RAG       0.307500
     54 H27         93.3640    71.3760    -2.7690 hn         1 RAG       0.395400
     55 H21         90.9530    72.4580    -4.4430 hn         1 RAG       0.477000
     56 H201        92.5940    74.1500    -4.5870 h1         1 RAG       0.046700
     57 H202        93.8200    73.0680    -3.9060 h1         1 RAG       0.046700
     58 H191        93.8250    71.7520    -6.0460 hc         1 RAG       0.052700
     59 H192        92.5960    72.8230    -6.7130 hc         1 RAG       0.052700
     60 H181        94.1990    74.7730    -6.4490 hc         1 RAG       0.058700
     61 H182        95.4330    73.6590    -5.8790 hc         1 RAG       0.058700
     62 H17         94.0740    73.5490    -8.6060 h1         1 RAG       0.080700
     63 H311        96.1340    77.4210   -10.2800 h1         1 RAG       0.048367
     64 H312        96.9930    77.0250    -8.7780 h1         1 RAG       0.048367
     65 H313        97.5140    76.2830   -10.3200 h1         1 RAG       0.048367
     66 H16         95.8510    71.6480    -7.2990 hn         1 RAG       0.314500
     67 H13         97.0690    70.0890    -8.3560 h1         1 RAG       0.048700
     68 H121        95.7580    68.0010    -8.7590 hc         1 RAG       0.042700
     69 H122        94.7630    69.2310    -7.9530 hc         1 RAG       0.042700
     70 H123        94.5560    68.9240    -9.6910 hc         1 RAG       0.042700
     71 H11         96.6760    69.0520   -11.0760 hn         1 RAG       0.315500
     72 H561        99.9800    69.3420   -11.8480 hc         1 RAG       0.056700
     73 H562        98.3660    68.8030   -12.4050 hc         1 RAG       0.056700
     74 H54         99.5420    71.6060   -12.7490 h1         1 RAG       0.085700
     75 H51         96.8130    70.6410   -13.2130 hn         1 RAG       0.286500
     76 H481        95.7900    72.4730   -15.6680 hc         1 RAG       0.065200
     77 H482        95.2460    71.7200   -14.1610 hc         1 RAG       0.065200
     78 H45         95.9390    74.6840   -14.5100 h1         1 RAG       0.078700
     79 H43         94.8900    73.2320   -12.1180 hn         1 RAG       0.328500
     80 H40         94.2670    74.2190   -10.4220 h1         1 RAG       0.066700
     81 H391        93.7870    77.2190   -10.5730 hc         1 RAG       0.073200
     82 H392        92.7270    75.9660   -11.1700 hc         1 RAG       0.073200
     83 H33         93.8990    77.7550    -8.1660 ha         1 RAG       0.121500
     84 H34         92.7400    77.6590    -5.9680 ha         1 RAG       0.099500
     85 H35         90.9550    75.9660    -5.5690 ha         1 RAG       0.094000
     86 H36         90.3340    74.3630    -7.3730 ha         1 RAG       0.099500
     87 H37         91.4870    74.4530    -9.5740 ha         1 RAG       0.121500
@<TRIPOS>BOND
     1     1     2 1   
     2     1    49 1   
     3     1    50 1   
     4     1    51 1   
     5     2     3 1   
     6     2    52 1   
     7     3     4 2   
     8     3     5 1   
     9     5     6 1   
    10     5    53 1   
    11     6     7 2   
    12     6     8 1   
    13     7    54 1   
    14     8     9 1   
    15     8    55 1   
    16     9    10 1   
    17     9    56 1   
    18     9    57 1   
    19    10    11 1   
    20    10    58 1   
    21    10    59 1   
    22    11    12 1   
    23    11    60 1   
    24    11    61 1   
    25    12    13 1   
    26    12    17 1   
    27    12    62 1   
    28    13    14 2   
    29    13    15 1   
    30    15    16 1   
    31    15    41 1   
    32    16    63 1   
    33    16    64 1   
    34    16    65 1   
    35    17    18 1   
    36    17    66 1   
    37    18    19 2   
    38    18    20 1   
    39    20    21 1   
    40    20    22 1   
    41    20    67 1   
    42    21    68 1   
    43    21    69 1   
    44    21    70 1   
    45    22    23 1   
    46    22    71 1   
    47    23    24 2   
    48    23    25 1   
    49    25    26 1   
    50    25    72 1   
    51    25    73 1   
    52    26    27 1   
    53    26    30 1   
    54    26    74 1   
    55    27    28 1   
    56    27    29 1   
    57    30    31 1   
    58    30    75 1   
    59    31    32 2   
    60    31    33 1   
    61    33    34 1   
    62    33    76 1   
    63    33    77 1   
    64    34    35 1   
    65    34    38 1   
    66    34    78 1   
    67    35    36 1   
    68    35    37 1   
    69    38    39 1   
    70    38    79 1   
    71    39    40 2   
    72    39    41 1   
    73    41    42 1   
    74    41    80 1   
    75    42    43 1   
    76    42    81 1   
    77    42    82 1   
    78    43    44 ar  
    79    43    48 ar  
    80    44    45 ar  
    81    44    83 1   
    82    45    46 ar  
    83    45    84 1   
    84    46    47 ar  
    85    46    85 1   
    86    47    48 ar  
    87    47    86 1   
    88    48    87 1   
@<TRIPOS>SUBSTRUCTURE
     1 RAG         1 TEMP              0 ****  ****    0 ROOT
