@<TRIPOS>MOLECULE
RAG
   87    88     1     0     0
SMALL
abcg2


@<TRIPOS>ATOM
      1 C26         88.7430    66.9710    -3.1480 c3         1 RAG       0.114300
      2 N25         89.1890    68.0910    -3.9390 ns         1 RAG      -0.539900
      3 C24         90.4160    68.6320    -3.7640 c          1 RAG       0.674100
      4 O28         91.2080    68.2110    -2.9400 o          1 RAG      -0.589100
      5 N23         90.6500    69.7220    -4.5840 ns         1 RAG      -0.472400
      6 C22         91.8650    70.3920    -4.7430 c2         1 RAG       0.704800
      7 N27         92.9720    69.7570    -4.7090 n2         1 RAG      -0.842100
      8 N21         91.6830    71.7220    -4.9670 nu         1 RAG      -0.991400
      9 C20         92.7400    72.6080    -5.3880 c3         1 RAG       0.228800
     10 C19         93.1340    72.4410    -6.8520 c3         1 RAG      -0.104400
     11 C18         94.2670    73.3850    -7.2310 c3         1 RAG      -0.089400
     12 C17         94.7780    73.1480    -8.6520 c3         1 RAG       0.047700
     13 C30         95.7990    74.2340    -9.0110 c          1 RAG       0.585100
     14 O29         96.8860    74.2050    -8.4530 o          1 RAG      -0.599100
     15 N32         95.4970    75.2130    -9.8900 n          1 RAG      -0.387800
     16 C31         96.5280    76.2160   -10.1160 c3         1 RAG       0.080300
     17 N16         95.4260    71.8570    -8.7130 ns         1 RAG      -0.492900
     18 C15         95.7360    71.2490    -9.8630 c          1 RAG       0.597100
     19 O14         95.4500    71.7020   -10.9620 o          1 RAG      -0.580100
     20 C13         96.3920    69.8780    -9.7040 c3         1 RAG       0.050700
     21 C12         95.3300    68.7970    -9.8650 c3         1 RAG      -0.104100
     22 N11         97.4320    69.6920   -10.6820 ns         1 RAG      -0.509900
     23 C58         98.4970    70.5090   -10.7470 c          1 RAG       0.599100
     24 O57         98.6440    71.4380    -9.9630 o          1 RAG      -0.604100
     25 C56         99.4820    70.2270   -11.8570 c3         1 RAG      -0.140400
     26 C54         99.5010    71.3840   -12.8580 c3         1 RAG      -0.033300
     27 C53        100.5140    71.1190   -14.0090 c          1 RAG       0.714000
     28 O52        101.6610    70.8120   -13.6320 o          1 RAG      -0.727500
     29 O55        100.1020    71.2480   -15.1720 o          1 RAG      -0.727500
     30 N51         98.1570    71.6280   -13.3220 ns         1 RAG      -0.478900
     31 C50         97.6740    72.8410   -13.6330 c          1 RAG       0.612100
     32 O49         98.2820    73.8830   -13.4270 o          1 RAG      -0.633100
     33 C48         96.3040    72.8090   -14.2840 c3         1 RAG      -0.157400
     34 C45         95.4680    74.0590   -14.0590 c3         1 RAG      -0.027300
     35 C46         94.1620    73.9500   -14.9020 c          1 RAG       0.718000
     36 O44         94.3300    74.0610   -16.1320 o          1 RAG      -0.735000
     37 O47         93.1010    73.7350   -14.2940 o          1 RAG      -0.735000
     38 N43         95.2110    74.2360   -12.6480 ns         1 RAG      -0.420900
     39 C42         94.6610    75.3600   -12.1860 c          1 RAG       0.588100
     40 O41         94.4800    76.3600   -12.8680 o          1 RAG      -0.639100
     41 C40         94.2900    75.3270   -10.6920 c3         1 RAG       0.029700
     42 C39         93.4340    76.5370   -10.3060 c3         1 RAG      -0.045100
     43 C38         92.9510    76.4660    -8.8870 ca         1 RAG      -0.054300
     44 C33         93.6310    77.1220    -7.8640 ca         1 RAG      -0.107000
     45 C34         93.1800    77.0570    -6.5520 ca         1 RAG      -0.121000
     46 C35         92.0400    76.3270    -6.2430 ca         1 RAG      -0.139000
     47 C36         91.3570    75.6620    -7.2540 ca         1 RAG      -0.121000
     48 C37         91.8120    75.7310    -8.5630 ca         1 RAG      -0.107000
     49 H261        87.7120    66.7560    -3.4140 h1         1 RAG       0.034700
     50 H262        89.3350    66.0710    -3.3290 h1         1 RAG       0.034700
     51 H263        88.7770    67.1920    -2.0820 h1         1 RAG       0.034700
     52 H25         88.6070    68.3900    -4.7030 hn         1 RAG       0.309500
     53 H23         89.8570    70.1190    -5.0630 hn         1 RAG       0.307500
     54 H27         93.7600    70.3890    -4.7840 hn         1 RAG       0.395400
     55 H21         90.7610    72.1100    -4.8670 hn         1 RAG       0.477000
     56 H201        92.3950    73.6270    -5.2130 h1         1 RAG       0.046700
     57 H202        93.6200    72.4780    -4.7490 h1         1 RAG       0.046700
     58 H191        93.4260    71.4030    -7.0320 hc         1 RAG       0.052700
     59 H192        92.2640    72.6400    -7.4850 hc         1 RAG       0.052700
     60 H181        93.9240    74.4170    -7.1470 hc         1 RAG       0.058700
     61 H182        95.1030    73.2770    -6.5320 hc         1 RAG       0.058700
     62 H17         93.9190    73.1280    -9.3210 h1         1 RAG       0.080700
     63 H311        96.1430    76.9990   -10.7620 h1         1 RAG       0.048367
     64 H312        96.8400    76.6790    -9.1820 h1         1 RAG       0.048367
     65 H313        97.4050    75.7820   -10.5990 h1         1 RAG       0.048367
     66 H16         95.8100    71.4890    -7.8560 hn         1 RAG       0.314500
     67 H13         96.8220    69.7990    -8.7000 h1         1 RAG       0.048700
     68 H121        95.7700    67.8090    -9.7270 hc         1 RAG       0.042700
     69 H122        94.5460    68.9220    -9.1200 hc         1 RAG       0.042700
     70 H123        94.8750    68.8380   -10.8550 hc         1 RAG       0.042700
     71 H11         97.3230    68.9590   -11.3640 hn         1 RAG       0.315500
     72 H561       100.4760    70.1140   -11.4260 hc         1 RAG       0.056700
     73 H562        99.2440    69.2900   -12.3690 hc         1 RAG       0.056700
     74 H54         99.8300    72.2830   -12.3320 h1         1 RAG       0.085700
     75 H51         97.6260    70.8280   -13.6290 hn         1 RAG       0.286500
     76 H481        96.4590    72.6950   -15.3600 hc         1 RAG       0.065200
     77 H482        95.7530    71.9210   -13.9600 hc         1 RAG       0.065200
     78 H45         96.0320    74.9220   -14.4200 h1         1 RAG       0.078700
     79 H43         95.2280    73.4200   -12.0460 hn         1 RAG       0.328500
     80 H40         93.6820    74.4350   -10.5470 h1         1 RAG       0.066700
     81 H391        93.9880    77.4630   -10.4670 hc         1 RAG       0.073200
     82 H392        92.5780    76.5660   -10.9820 hc         1 RAG       0.073200
     83 H33         94.5170    77.7010    -8.0990 ha         1 RAG       0.121500
     84 H34         93.7190    77.5780    -5.7710 ha         1 RAG       0.099500
     85 H35         91.6840    76.2780    -5.2220 ha         1 RAG       0.094000
     86 H36         90.4670    75.0900    -7.0220 ha         1 RAG       0.099500
     87 H37         91.2690    75.2150    -9.3470 ha         1 RAG       0.121500
@<TRIPOS>BOND
     1     1     2 1   
     2     1    49 1   
     3     1    50 1   
     4     1    51 1   
     5     2     3 1   
     6     2    52 1   
     7     3     4 2   
     8     3     5 1   
     9     5     6 1   
    10     5    53 1   
    11     6     7 2   
    12     6     8 1   
    13     7    54 1   
    14     8     9 1   
    15     8    55 1   
    16     9    10 1   
    17     9    56 1   
    18     9    57 1   
    19    10    11 1   
    20    10    58 1   
    21    10    59 1   
    22    11    12 1   
    23    11    60 1   
    24    11    61 1   
    25    12    13 1   
    26    12    17 1   
    27    12    62 1   
    28    13    14 2   
    29    13    15 1   
    30    15    16 1   
    31    15    41 1   
    32    16    63 1   
    33    16    64 1   
    34    16    65 1   
    35    17    18 1   
    36    17    66 1   
    37    18    19 2   
    38    18    20 1   
    39    20    21 1   
    40    20    22 1   
    41    20    67 1   
    42    21    68 1   
    43    21    69 1   
    44    21    70 1   
    45    22    23 1   
    46    22    71 1   
    47    23    24 2   
    48    23    25 1   
    49    25    26 1   
    50    25    72 1   
    51    25    73 1   
    52    26    27 1   
    53    26    30 1   
    54    26    74 1   
    55    27    28 1   
    56    27    29 1   
    57    30    31 1   
    58    30    75 1   
    59    31    32 2   
    60    31    33 1   
    61    33    34 1   
    62    33    76 1   
    63    33    77 1   
    64    34    35 1   
    65    34    38 1   
    66    34    78 1   
    67    35    36 1   
    68    35    37 1   
    69    38    39 1   
    70    38    79 1   
    71    39    40 2   
    72    39    41 1   
    73    41    42 1   
    74    41    80 1   
    75    42    43 1   
    76    42    81 1   
    77    42    82 1   
    78    43    44 ar  
    79    43    48 ar  
    80    44    45 ar  
    81    44    83 1   
    82    45    46 ar  
    83    45    84 1   
    84    46    47 ar  
    85    46    85 1   
    86    47    48 ar  
    87    47    86 1   
    88    48    87 1   
@<TRIPOS>SUBSTRUCTURE
     1 RAG         1 TEMP              0 ****  ****    0 ROOT
