@<TRIPOS>MOLECULE
RAI
   40    41     1     0     0
SMALL
No Charge or Current Charge


@<TRIPOS>ATOM
      1 C1          -1.8590     0.5570     0.5770 ca         1 RAI      -0.123000
      2 C2          -0.6110     0.2380     0.0070 ca         1 RAI      -0.076000
      3 C3           0.5150     0.0820     0.8610 ca         1 RAI       0.236000
      4 C4           0.3400     0.1550     2.2560 ca         1 RAI      -0.089000
      5 C5          -0.9220     0.4310     2.8320 ca         1 RAI      -0.122600
      6 C6          -2.0180     0.6430     1.9680 ca         1 RAI      -0.083000
      7 C10         -1.0880     0.5160     4.3400 c          1 RAI       0.713600
      8 O11         -2.1960     0.7670     4.7940 o          1 RAI      -0.714000
      9 N12          1.8120    -0.1530     0.3890 nu         1 RAI      -0.972200
     10 C13          2.6780     0.6340    -0.1700 c2         1 RAI       0.837100
     11 N14          3.7470    -0.0820    -0.2020 nv         1 RAI      -1.052200
     12 N15         -0.5210     0.1950    -1.4330 n          1 RAI      -0.231400
     13 C16         -0.5210    -1.0990    -2.1970 c5         1 RAI       0.115400
     14 C17         -1.1510    -0.6190    -3.5640 c5         1 RAI      -0.076400
     15 C18         -0.6990     0.8570    -3.6720 c5         1 RAI      -0.159400
     16 C19         -0.7520     1.3320    -2.2280 c          1 RAI       0.564000
     17 C24          0.9150    -1.7160    -2.3750 c3         1 RAI       0.162600
     18 O25          1.8750    -0.7890    -2.9040 oh         1 RAI      -0.670000
     19 C28         -1.4530    -2.2030    -1.5790 c3         1 RAI       0.162600
     20 O29         -0.9280    -2.8060    -0.3810 oh         1 RAI      -0.670000
     21 O32         -0.1090     0.3280     5.0490 o          1 RAI      -0.714000
     22 N33          2.2940     1.2930    -1.1310 n2         1 RAI      -0.981100
     23 O34         -1.1140     2.4240    -1.8070 o          1 RAI      -0.562000
     24 H1          -2.7220     0.7200    -0.0650 ha         1 RAI       0.090000
     25 H4           1.2040     0.0140     2.8980 ha         1 RAI       0.140000
     26 H6          -3.0010     0.8730     2.3740 ha         1 RAI       0.131000
     27 H12          2.3190    -0.8900     0.8540 hn         1 RAI       0.495000
     28 H141         4.2010     0.0960    -1.0840 hn         1 RAI       0.486000
     29 H142         4.3590     0.1540     0.5670 hn         1 RAI       0.486000
     30 H171        -2.2470    -0.6680    -3.5350 hc         1 RAI       0.046700
     31 H172        -0.8300    -1.2240    -4.4200 hc         1 RAI       0.046700
     32 H181        -1.3090     1.4890    -4.3240 hc         1 RAI       0.073200
     33 H182         0.3390     0.9020    -4.0140 hc         1 RAI       0.073200
     34 H241         1.2730    -2.0890    -1.4080 h1         1 RAI       0.035200
     35 H242         0.8350    -2.5870    -3.0400 h1         1 RAI       0.035200
     36 H25          2.0210    -0.1050    -2.1890 ho         1 RAI       0.459500
     37 H281        -2.4340    -1.7540    -1.3730 h1         1 RAI       0.035200
     38 H282        -1.6110    -2.9820    -2.3380 h1         1 RAI       0.035200
     39 H29         -1.6310    -3.3920    -0.0210 ho         1 RAI       0.459500
     40 H33          1.2830     1.3480    -0.9660 hn         1 RAI       0.374400
@<TRIPOS>BOND
     1     1     2 ar  
     2     1     6 ar  
     3     1    24 1   
     4     2     3 ar  
     5     2    12 1   
     6     3     4 ar  
     7     3     9 1   
     8     4     5 ar  
     9     4    25 1   
    10     5     6 ar  
    11     5     7 1   
    12     6    26 1   
    13     7     8 1   
    14     7    21 1   
    15     9    10 1   
    16     9    27 1   
    17    10    11 1   
    18    10    22 2   
    19    11    28 1   
    20    11    29 1   
    21    12    13 1   
    22    12    16 1   
    23    13    14 1   
    24    13    17 1   
    25    13    19 1   
    26    14    15 1   
    27    14    30 1   
    28    14    31 1   
    29    15    16 1   
    30    15    32 1   
    31    15    33 1   
    32    16    23 2   
    33    17    18 1   
    34    17    34 1   
    35    17    35 1   
    36    18    36 1   
    37    19    20 1   
    38    19    37 1   
    39    19    38 1   
    40    20    39 1   
    41    22    40 1   
@<TRIPOS>SUBSTRUCTURE
     1 RAI         1 TEMP              0 ****  ****    0 ROOT
