@<TRIPOS>MOLECULE
RAI
   40    41     1     0     0
SMALL
abcg2


@<TRIPOS>ATOM
      1 C1          -1.7860    -0.1810     0.7610 ca         1 RAI      -0.123000
      2 C2          -0.6660     0.2150     0.0400 ca         1 RAI      -0.076000
      3 C3           0.4670     0.6430     0.7400 ca         1 RAI       0.236000
      4 C4           0.4620     0.6370     2.1300 ca         1 RAI      -0.089000
      5 C5          -0.6380     0.1910     2.8520 ca         1 RAI      -0.122600
      6 C6          -1.7670    -0.2110     2.1450 ca         1 RAI      -0.083000
      7 C10         -0.6120     0.1730     4.3760 c          1 RAI       0.713600
      8 O11         -1.6240    -0.2810     4.9410 o          1 RAI      -0.714000
      9 N12          1.6130     1.1030     0.0540 nu         1 RAI      -0.972200
     10 C13          2.7080     0.3220    -0.2160 c2         1 RAI       0.837100
     11 N14          2.8160    -0.8320     0.4930 nv         1 RAI      -1.052200
     12 N15         -0.7150     0.2390    -1.3760 n          1 RAI      -0.231400
     13 C16         -0.6690    -0.9430    -2.2560 c5         1 RAI       0.115400
     14 C17         -1.1830    -0.3530    -3.5840 c5         1 RAI      -0.076400
     15 C18         -0.8720     1.1340    -3.5210 c5         1 RAI      -0.159400
     16 C19         -0.7240     1.4160    -2.0490 c          1 RAI       0.564000
     17 C24          0.7640    -1.4690    -2.3940 c3         1 RAI       0.162600
     18 O25          1.5890    -0.5350    -3.0450 oh         1 RAI      -0.670000
     19 C28         -1.6000    -2.0700    -1.8350 c3         1 RAI       0.162600
     20 O29         -1.0820    -2.7600    -0.7260 oh         1 RAI      -0.670000
     21 O32          0.4190     0.6130     4.9190 o          1 RAI      -0.714000
     22 N33          3.5890     0.6040    -1.1180 n2         1 RAI      -0.981100
     23 O34         -0.6330     2.5140    -1.5270 o          1 RAI      -0.562000
     24 H1          -2.6850    -0.4660     0.2320 ha         1 RAI       0.090000
     25 H4           1.3350     1.0020     2.6550 ha         1 RAI       0.140000
     26 H6          -2.6460    -0.5400     2.6820 ha         1 RAI       0.131000
     27 H12          1.4620     1.8660    -0.5890 hn         1 RAI       0.495000
     28 H141         3.7170    -1.2790     0.4650 hn         1 RAI       0.486000
     29 H142         2.3130    -0.9440     1.3560 hn         1 RAI       0.486000
     30 H171        -2.2640    -0.4990    -3.6460 hc         1 RAI       0.046700
     31 H172        -0.7410    -0.8540    -4.4450 hc         1 RAI       0.046700
     32 H181        -1.6590     1.7610    -3.9400 hc         1 RAI       0.073200
     33 H182         0.0580     1.3960    -4.0260 hc         1 RAI       0.073200
     34 H241         1.1580    -1.7380    -1.4110 h1         1 RAI       0.035200
     35 H242         0.7180    -2.3950    -2.9840 h1         1 RAI       0.035200
     36 H25          2.3470    -0.3170    -2.4830 ho         1 RAI       0.459500
     37 H281        -2.5950    -1.6530    -1.6390 h1         1 RAI       0.035200
     38 H282        -1.7060    -2.7360    -2.7030 h1         1 RAI       0.035200
     39 H29         -1.7550    -3.3690    -0.4100 ho         1 RAI       0.459500
     40 H33          3.3690     1.4840    -1.5690 hn         1 RAI       0.374400
@<TRIPOS>BOND
     1     1     2 ar  
     2     1     6 ar  
     3     1    24 1   
     4     2     3 ar  
     5     2    12 1   
     6     3     4 ar  
     7     3     9 1   
     8     4     5 ar  
     9     4    25 1   
    10     5     6 ar  
    11     5     7 1   
    12     6    26 1   
    13     7     8 1   
    14     7    21 1   
    15     9    10 1   
    16     9    27 1   
    17    10    11 1   
    18    10    22 2   
    19    11    28 1   
    20    11    29 1   
    21    12    13 1   
    22    12    16 1   
    23    13    14 1   
    24    13    17 1   
    25    13    19 1   
    26    14    15 1   
    27    14    30 1   
    28    14    31 1   
    29    15    16 1   
    30    15    32 1   
    31    15    33 1   
    32    16    23 2   
    33    17    18 1   
    34    17    34 1   
    35    17    35 1   
    36    18    36 1   
    37    19    20 1   
    38    19    37 1   
    39    19    38 1   
    40    20    39 1   
    41    22    40 1   
@<TRIPOS>SUBSTRUCTURE
     1 RAI         1 TEMP              0 ****  ****    0 ROOT
