@<TRIPOS>MOLECULE
RAJ
   68    71     1     0     0
SMALL
No Charge or Current Charge


@<TRIPOS>ATOM
      1 C28         -2.0180     6.3760     1.3550 c3         1 RAJ       0.150600
      2 N6          -3.2620     5.5970     1.1470 n3         1 RAJ      -0.717600
      3 C29         -4.4010     6.1650     1.9010 c3         1 RAJ       0.150600
      4 C27         -3.1050     4.1380     1.3890 c3         1 RAJ       0.164800
      5 C26         -2.0870     3.4150     0.4740 c3         1 RAJ      -0.071400
      6 C25         -2.4010     3.5370    -1.0350 c3         1 RAJ      -0.032100
      7 C20         -1.3810     2.7990    -1.8930 ca         1 RAJ      -0.054300
      8 C19         -0.1390     3.3940    -2.1720 ca         1 RAJ      -0.145000
      9 C21         -1.6680     1.5200    -2.4010 ca         1 RAJ      -0.092000
     10 C22         -0.7230     0.8330    -3.1930 ca         1 RAJ      -0.166300
     11 C24         -1.0260    -0.5700    -3.7350 c3         1 RAJ       0.355300
     12 F2          -2.3530    -0.8050    -3.8580 f          1 RAJ      -0.113667
     13 F3          -0.4860    -0.7720    -4.9590 f          1 RAJ      -0.113667
     14 F1          -0.5290    -1.5280    -2.9220 f          1 RAJ      -0.113667
     15 C23          0.5240     1.4430    -3.4580 ca         1 RAJ      -0.096000
     16 C18          0.8210     2.7290    -2.9550 ca         1 RAJ      -0.013000
     17 N5           2.0550     3.3990    -3.1780 ns         1 RAJ      -0.148000
     18 C17          3.1410     3.1210    -4.0000 c          1 RAJ       0.624700
     19 O1           3.1790     2.1610    -4.7610 o          1 RAJ      -0.572100
     20 C12          4.3020     4.0980    -3.9080 ca         1 RAJ      -0.139600
     21 C11          4.3190     5.1670    -2.9770 ca         1 RAJ      -0.107000
     22 C13          5.4120     3.9440    -4.7660 ca         1 RAJ      -0.075000
     23 C14          6.5000     4.8280    -4.6970 ca         1 RAJ      -0.098000
     24 C15          6.5060     5.8920    -3.7750 ca         1 RAJ      -0.096300
     25 C16          7.7140     6.8300    -3.7330 c3         1 RAJ      -0.052800
     26 C10          5.3970     6.0740    -2.9160 ca         1 RAJ       0.307000
     27 N4           5.4170     7.1170    -1.9810 nu         1 RAJ      -0.943900
     28 C9           4.4760     7.9170    -1.3760 ca         1 RAJ       0.668900
     29 N3           3.2500     7.7990    -1.8930 nb         1 RAJ      -0.766000
     30 C8           2.2630     8.5430    -1.3570 ca         1 RAJ       0.412900
     31 C7           2.4720     9.4270    -0.2940 ca         1 RAJ      -0.233000
     32 C6           3.7590     9.5610     0.2380 ca         1 RAJ      -0.008000
     33 C5           4.8140     8.7970    -0.3140 cp         1 RAJ      -0.289500
     34 C3           6.1970     8.9370     0.2420 cp         1 RAJ       0.219500
     35 C2           6.4310     9.1250     1.6250 ca         1 RAJ      -0.216000
     36 C1           7.7560     9.2780     2.0660 ca         1 RAJ       0.115900
     37 N2           8.7900     9.2540     1.2020 nb         1 RAJ      -0.172000
     38 C4           8.4800     9.0760    -0.0980 ca         1 RAJ       0.141900
     39 N1           7.2420     8.9180    -0.6130 nb         1 RAJ      -0.240000
     40 H281        -1.2240     6.0490     0.6710 h1         1 RAJ       0.029200
     41 H282        -1.6550     6.2680     2.3860 h1         1 RAJ       0.029200
     42 H283        -2.1950     7.4430     1.1650 h1         1 RAJ       0.029200
     43 H291        -4.5490     7.2220     1.6430 h1         1 RAJ       0.029200
     44 H292        -4.2280     6.0970     2.9840 h1         1 RAJ       0.029200
     45 H293        -5.3300     5.6280     1.6670 h1         1 RAJ       0.029200
     46 H271        -2.8110     3.9660     2.4330 h1         1 RAJ       0.032700
     47 H272        -4.0770     3.6430     1.2510 h1         1 RAJ       0.032700
     48 H261        -1.0760     3.7900     0.6720 hc         1 RAJ       0.043700
     49 H262        -2.0760     2.3520     0.7450 hc         1 RAJ       0.043700
     50 H251        -3.4110     3.1530    -1.2240 hc         1 RAJ       0.059200
     51 H252        -2.4210     4.5960    -1.3170 hc         1 RAJ       0.059200
     52 H19          0.0810     4.3820    -1.7740 ha         1 RAJ       0.114000
     53 H21         -2.6270     1.0600    -2.1710 ha         1 RAJ       0.131000
     54 H23          1.2560     0.8970    -4.0450 ha         1 RAJ       0.162000
     55 HN5          2.1570     4.2440    -2.6340 hn         1 RAJ       0.163000
     56 H11          3.5040     5.2950    -2.2750 ha         1 RAJ       0.137000
     57 H13          5.4390     3.1330    -5.4920 ha         1 RAJ       0.137000
     58 H14          7.3450     4.6800    -5.3670 ha         1 RAJ       0.118000
     59 H161         7.4100     7.8760    -3.8600 hc         1 RAJ       0.046367
     60 H162         8.2480     6.7440    -2.7790 hc         1 RAJ       0.046367
     61 H163         8.4330     6.6040    -4.5290 hc         1 RAJ       0.046367
     62 HN4          6.3480     7.4640    -1.7780 hn         1 RAJ       0.547000
     63 H8           1.2720     8.4240    -1.7940 h4         1 RAJ       0.017100
     64 H7           1.6420    10.0050     0.1040 ha         1 RAJ       0.130000
     65 H6           3.9380    10.2590     1.0540 ha         1 RAJ       0.117000
     66 H2           5.6110     9.1410     2.3370 ha         1 RAJ       0.136000
     67 H1           7.9930     9.4200     3.1190 h4         1 RAJ       0.028100
     68 H4           9.3100     9.0580    -0.8020 h5         1 RAJ       0.051100
@<TRIPOS>BOND
     1     1     2 1   
     2     1    40 1   
     3     1    41 1   
     4     1    42 1   
     5     2     3 1   
     6     2     4 1   
     7     3    43 1   
     8     3    44 1   
     9     3    45 1   
    10     4     5 1   
    11     4    46 1   
    12     4    47 1   
    13     5     6 1   
    14     5    48 1   
    15     5    49 1   
    16     6     7 1   
    17     6    50 1   
    18     6    51 1   
    19     7     8 ar  
    20     7     9 ar  
    21     8    16 ar  
    22     8    52 1   
    23     9    10 ar  
    24     9    53 1   
    25    10    11 1   
    26    10    15 ar  
    27    11    12 1   
    28    11    13 1   
    29    11    14 1   
    30    15    16 ar  
    31    15    54 1   
    32    16    17 1   
    33    17    18 1   
    34    17    55 1   
    35    18    19 2   
    36    18    20 1   
    37    20    21 ar  
    38    20    22 ar  
    39    21    26 ar  
    40    21    56 1   
    41    22    23 ar  
    42    22    57 1   
    43    23    24 ar  
    44    23    58 1   
    45    24    25 1   
    46    24    26 ar  
    47    25    59 1   
    48    25    60 1   
    49    25    61 1   
    50    26    27 1   
    51    27    28 1   
    52    27    62 1   
    53    28    29 ar  
    54    28    33 ar  
    55    29    30 ar  
    56    30    31 ar  
    57    30    63 1   
    58    31    32 ar  
    59    31    64 1   
    60    32    33 ar  
    61    32    65 1   
    62    33    34 1   
    63    34    35 ar  
    64    34    39 ar  
    65    35    36 ar  
    66    35    66 1   
    67    36    37 ar  
    68    36    67 1   
    69    37    38 ar  
    70    38    39 ar  
    71    38    68 1   
@<TRIPOS>SUBSTRUCTURE
     1 RAJ         1 TEMP              0 ****  ****    0 ROOT
