@<TRIPOS>MOLECULE
RAJ
   68    71     1     0     0
SMALL
abcg2


@<TRIPOS>ATOM
      1 C28         -1.6580     6.3720     1.0700 c3         1 RAJ       0.150600
      2 N6          -2.9640     5.8100     0.8060 n3         1 RAJ      -0.717600
      3 C29         -3.9950     6.5520     1.4970 c3         1 RAJ       0.150600
      4 C27         -3.0380     4.3970     1.1290 c3         1 RAJ       0.164800
      5 C26         -2.1320     3.5220     0.2740 c3         1 RAJ      -0.071400
      6 C25         -2.3970     3.6660    -1.2260 c3         1 RAJ      -0.032100
      7 C20         -1.3940     2.8940    -2.0330 ca         1 RAJ      -0.054300
      8 C19         -0.1870     3.4800    -2.3690 ca         1 RAJ      -0.145000
      9 C21         -1.6210     1.5680    -2.3990 ca         1 RAJ      -0.092000
     10 C22         -0.6410     0.8740    -3.0900 ca         1 RAJ      -0.166300
     11 C24         -0.8530    -0.5510    -3.5020 c3         1 RAJ       0.355300
     12 F2          -2.0570    -1.0170    -3.1610 f          1 RAJ      -0.113667
     13 F3          -0.7350    -0.7050    -4.8290 f          1 RAJ      -0.113667
     14 F1           0.0540    -1.3680    -2.9440 f          1 RAJ      -0.113667
     15 C23          0.5740     1.4620    -3.4300 ca         1 RAJ      -0.096000
     16 C18          0.8050     2.7830    -3.0610 ca         1 RAJ      -0.013000
     17 N5           1.9790     3.4860    -3.3260 ns         1 RAJ      -0.148000
     18 C17          3.1520     3.0530    -3.8630 c          1 RAJ       0.624700
     19 O1           3.3130     1.9460    -4.3440 o          1 RAJ      -0.572100
     20 C12          4.2400     4.0720    -3.8320 ca         1 RAJ      -0.139600
     21 C11          4.3030     5.0160    -2.8120 ca         1 RAJ      -0.107000
     22 C13          5.2080     4.0640    -4.8290 ca         1 RAJ      -0.075000
     23 C14          6.2070     5.0240    -4.8050 ca         1 RAJ      -0.098000
     24 C15          6.2680     6.0010    -3.8180 ca         1 RAJ      -0.096300
     25 C16          7.3500     7.0390    -3.8390 c3         1 RAJ      -0.052800
     26 C10          5.2930     5.9960    -2.8030 ca         1 RAJ       0.307000
     27 N4           5.3970     6.9550    -1.8020 nu         1 RAJ      -0.943900
     28 C9           4.4210     7.4850    -1.0120 ca         1 RAJ       0.668900
     29 N3           3.1630     7.1230    -1.2440 nb         1 RAJ      -0.766000
     30 C8           2.1830     7.6310    -0.5170 ca         1 RAJ       0.412900
     31 C7           2.3830     8.5480     0.4970 ca         1 RAJ      -0.233000
     32 C6           3.6880     8.9270     0.7560 ca         1 RAJ      -0.008000
     33 C5           4.7530     8.4070     0.0270 cp         1 RAJ      -0.289500
     34 C3           6.1270     8.8210     0.3570 cp         1 RAJ       0.219500
     35 C2           6.4530     9.4380     1.5670 ca         1 RAJ      -0.216000
     36 C1           7.7680     9.8050     1.7610 ca         1 RAJ       0.115900
     37 N2           8.7210     9.5880     0.8570 nb         1 RAJ      -0.172000
     38 C4           8.3290     8.9810    -0.2470 ca         1 RAJ       0.141900
     39 N1           7.0960     8.5940    -0.5340 nb         1 RAJ      -0.240000
     40 H281        -0.8960     5.9040     0.4450 h1         1 RAJ       0.029200
     41 H282        -1.3400     6.2610     2.1190 h1         1 RAJ       0.029200
     42 H283        -1.6590     7.4370     0.8340 h1         1 RAJ       0.029200
     43 H291        -3.9480     7.6050     1.2180 h1         1 RAJ       0.029200
     44 H292        -3.9140     6.4950     2.5940 h1         1 RAJ       0.029200
     45 H293        -4.9810     6.1760     1.2180 h1         1 RAJ       0.029200
     46 H271        -2.8030     4.2150     2.1920 h1         1 RAJ       0.032700
     47 H272        -4.0740     4.0760     0.9830 h1         1 RAJ       0.032700
     48 H261        -1.0800     3.7390     0.4820 hc         1 RAJ       0.043700
     49 H262        -2.2840     2.4820     0.5730 hc         1 RAJ       0.043700
     50 H251        -3.4090     3.3190    -1.4520 hc         1 RAJ       0.059200
     51 H252        -2.3570     4.7210    -1.5030 hc         1 RAJ       0.059200
     52 H19         -0.0050     4.5100    -2.0760 ha         1 RAJ       0.114000
     53 H21         -2.5620     1.1030    -2.1380 ha         1 RAJ       0.131000
     54 H23          1.3200     0.9080    -3.9770 ha         1 RAJ       0.162000
     55 HN5          1.9420     4.4610    -3.0740 hn         1 RAJ       0.163000
     56 H11          3.6010     4.9840    -1.9960 ha         1 RAJ       0.137000
     57 H13          5.1750     3.3330    -5.6240 ha         1 RAJ       0.137000
     58 H14          6.9550     5.0270    -5.5870 ha         1 RAJ       0.118000
     59 H161         6.9360     8.0490    -3.8530 hc         1 RAJ       0.046367
     60 H162         8.0030     6.9700    -2.9650 hc         1 RAJ       0.046367
     61 H163         7.9800     6.9260    -4.7200 hc         1 RAJ       0.046367
     62 HN4          6.3030     7.4040    -1.6720 hn         1 RAJ       0.547000
     63 H8           1.1820     7.2930    -0.7670 h4         1 RAJ       0.017100
     64 H7           1.5560     8.9520     1.0620 ha         1 RAJ       0.130000
     65 H6           3.8690     9.6560     1.5340 ha         1 RAJ       0.117000
     66 H2           5.7290     9.6180     2.3470 ha         1 RAJ       0.136000
     67 H1           8.0690    10.2870     2.6840 h4         1 RAJ       0.028100
     68 H4           9.0840     8.7760    -0.9970 h5         1 RAJ       0.051100
@<TRIPOS>BOND
     1     1     2 1   
     2     1    40 1   
     3     1    41 1   
     4     1    42 1   
     5     2     3 1   
     6     2     4 1   
     7     3    43 1   
     8     3    44 1   
     9     3    45 1   
    10     4     5 1   
    11     4    46 1   
    12     4    47 1   
    13     5     6 1   
    14     5    48 1   
    15     5    49 1   
    16     6     7 1   
    17     6    50 1   
    18     6    51 1   
    19     7     8 ar  
    20     7     9 ar  
    21     8    16 ar  
    22     8    52 1   
    23     9    10 ar  
    24     9    53 1   
    25    10    11 1   
    26    10    15 ar  
    27    11    12 1   
    28    11    13 1   
    29    11    14 1   
    30    15    16 ar  
    31    15    54 1   
    32    16    17 1   
    33    17    18 1   
    34    17    55 1   
    35    18    19 2   
    36    18    20 1   
    37    20    21 ar  
    38    20    22 ar  
    39    21    26 ar  
    40    21    56 1   
    41    22    23 ar  
    42    22    57 1   
    43    23    24 ar  
    44    23    58 1   
    45    24    25 1   
    46    24    26 ar  
    47    25    59 1   
    48    25    60 1   
    49    25    61 1   
    50    26    27 1   
    51    27    28 1   
    52    27    62 1   
    53    28    29 ar  
    54    28    33 ar  
    55    29    30 ar  
    56    30    31 ar  
    57    30    63 1   
    58    31    32 ar  
    59    31    64 1   
    60    32    33 ar  
    61    32    65 1   
    62    33    34 1   
    63    34    35 ar  
    64    34    39 ar  
    65    35    36 ar  
    66    35    66 1   
    67    36    37 ar  
    68    36    67 1   
    69    37    38 ar  
    70    38    39 ar  
    71    38    68 1   
@<TRIPOS>SUBSTRUCTURE
     1 RAJ         1 TEMP              0 ****  ****    0 ROOT
