@<TRIPOS>MOLECULE
RAK
   29    29     1     0     0
SMALL
No Charge or Current Charge


@<TRIPOS>ATOM
      1 C8         -13.4870     6.3960    44.1810 ca         1 RAK      -0.148000
      2 C6         -15.5190     5.1790    44.8110 ca         1 RAK       0.227500
      3 C5         -16.1140     2.2700    42.6830 c3         1 RAK       0.191100
      4 C10        -13.4150     3.9820    44.5900 ca         1 RAK       0.227500
      5 C14        -10.6840     9.5260    44.9330 c3         1 RAK       0.161800
      6 F19        -12.6840     2.8420    44.6160 f          1 RAK      -0.124000
      7 C11        -14.7960     3.9660    44.8850 ca         1 RAK      -0.297500
      8 F18        -16.8460     5.2250    45.0680 f          1 RAK      -0.124000
      9 S2         -15.5880     2.4170    45.3220 sy         1 RAK       1.172600
     10 O3         -17.0090     2.5910    45.6220 o          1 RAK      -0.525500
     11 O4         -14.7000     1.6590    46.2030 o          1 RAK      -0.525500
     12 N1         -15.5370     1.6030    43.8670 n7         1 RAK      -0.899300
     13 C9         -12.7680     5.1850    44.2410 ca         1 RAK       0.155000
     14 F16        -11.4480     5.1700    43.9410 f          1 RAK      -0.133500
     15 C7         -14.8660     6.3800    44.4610 ca         1 RAK       0.155000
     16 F17        -15.5740     7.5320    44.3970 f          1 RAK      -0.133500
     17 S12        -12.6800     7.9370    43.7320 ss         1 RAK      -0.105000
     18 C13        -11.4280     8.1770    45.0750 c3         1 RAK       0.050600
     19 N15         -9.8210     9.5960    43.7280 n8         1 RAK      -1.003200
     20 H1         -16.0940     1.5980    41.8150 h1         1 RAK       0.052367
     21 H2         -17.1600     2.5630    42.8550 h1         1 RAK       0.052367
     22 H3         -15.5470     3.1710    42.4140 h1         1 RAK       0.052367
     23 H4         -10.0530     9.6800    45.8200 h1         1 RAK       0.041700
     24 H5         -11.4180    10.3430    44.8940 h1         1 RAK       0.041700
     25 H6         -16.1020     0.7860    44.0980 hn         1 RAK       0.499000
     26 H7         -11.9520     8.1580    46.0390 h1         1 RAK       0.066700
     27 H8         -10.7070     7.3510    45.0610 h1         1 RAK       0.066700
     28 H9          -9.3150    10.4910    43.7290 hn         1 RAK       0.402500
     29 H10         -9.0710     8.8980    43.8070 hn         1 RAK       0.402500
@<TRIPOS>BOND
     1     1    13 ar  
     2     1    15 ar  
     3     1    17 1   
     4     2     7 ar  
     5     2     8 1   
     6     2    15 ar  
     7     3    12 1   
     8     3    20 1   
     9     3    21 1   
    10     3    22 1   
    11     4     6 1   
    12     4     7 ar  
    13     4    13 ar  
    14     5    18 1   
    15     5    19 1   
    16     5    23 1   
    17     5    24 1   
    18     7     9 1   
    19     9    10 2   
    20     9    11 2   
    21     9    12 1   
    22    12    25 1   
    23    13    14 1   
    24    15    16 1   
    25    17    18 1   
    26    18    26 1   
    27    18    27 1   
    28    19    28 1   
    29    19    29 1   
@<TRIPOS>SUBSTRUCTURE
     1 RAK         1 TEMP              0 ****  ****    0 ROOT
