@<TRIPOS>MOLECULE
RAK
   29    29     1     0     0
SMALL
abcg2


@<TRIPOS>ATOM
      1 C8         -13.1250     6.3090    44.0280 ca         1 RAK      -0.148000
      2 C6         -15.2480     5.3350    44.6550 ca         1 RAK       0.227500
      3 C5         -16.5900     2.1170    42.8280 c3         1 RAK       0.191100
      4 C10        -13.3240     3.9420    44.4350 ca         1 RAK       0.227500
      5 C14        -10.8310     9.4980    45.0790 c3         1 RAK       0.161800
      6 F19        -12.7460     2.7490    44.4560 f          1 RAK      -0.124000
      7 C11        -14.6770     4.0720    44.7310 ca         1 RAK      -0.297500
      8 F18        -16.5320     5.5440    44.8940 f          1 RAK      -0.124000
      9 S2         -15.5780     2.6130    45.2420 sy         1 RAK       1.172600
     10 O3         -16.8970     3.0420    45.6590 o          1 RAK      -0.525500
     11 O4         -14.7480     1.8770    46.1730 o          1 RAK      -0.525500
     12 N1         -15.6020     1.7700    43.8400 n7         1 RAK      -0.899300
     13 C9         -12.5650     5.0410    44.0950 ca         1 RAK       0.155000
     14 F16        -11.2750     4.8710    43.8380 f          1 RAK      -0.133500
     15 C7         -14.4750     6.4310    44.3070 ca         1 RAK       0.155000
     16 F17        -15.0600     7.6210    44.2510 f          1 RAK      -0.133500
     17 S12        -12.1620     7.7030    43.5440 ss         1 RAK      -0.105000
     18 C13        -11.3920     8.0930    45.1600 c3         1 RAK       0.050600
     19 N15        -10.0010     9.6430    43.8980 n8         1 RAK      -1.003200
     20 H1         -16.3780     1.5150    41.9490 h1         1 RAK       0.052367
     21 H2         -17.6170     1.9330    43.1440 h1         1 RAK       0.052367
     22 H3         -16.4860     3.1630    42.5430 h1         1 RAK       0.052367
     23 H4         -10.3170     9.7050    46.0270 h1         1 RAK       0.041700
     24 H5         -11.6580    10.2080    45.0080 h1         1 RAK       0.041700
     25 H6         -15.4750     0.7760    44.0020 hn         1 RAK       0.499000
     26 H7         -12.1490     8.0250    45.9400 h1         1 RAK       0.066700
     27 H8         -10.6100     7.3620    45.3670 h1         1 RAK       0.066700
     28 H9          -9.7150    10.6070    43.7910 hn         1 RAK       0.402500
     29 H10         -9.1510     9.1040    44.0030 hn         1 RAK       0.402500
@<TRIPOS>BOND
     1     1    13 ar  
     2     1    15 ar  
     3     1    17 1   
     4     2     7 ar  
     5     2     8 1   
     6     2    15 ar  
     7     3    12 1   
     8     3    20 1   
     9     3    21 1   
    10     3    22 1   
    11     4     6 1   
    12     4     7 ar  
    13     4    13 ar  
    14     5    18 1   
    15     5    19 1   
    16     5    23 1   
    17     5    24 1   
    18     7     9 1   
    19     9    10 2   
    20     9    11 2   
    21     9    12 1   
    22    12    25 1   
    23    13    14 1   
    24    15    16 1   
    25    17    18 1   
    26    18    26 1   
    27    18    27 1   
    28    19    28 1   
    29    19    29 1   
@<TRIPOS>SUBSTRUCTURE
     1 RAK         1 TEMP              0 ****  ****    0 ROOT
