@<TRIPOS>MOLECULE
RAL
   61    65     1     0     0
SMALL
No Charge or Current Charge


@<TRIPOS>ATOM
      1 C1           1.9970     1.1360    -5.2480 ca         1 RAL      -0.019000
      2 C2           2.0490     0.9240    -6.6410 ca         1 RAL      -0.204000
      3 C3           1.2000    -0.0200    -7.2470 ca         1 RAL       0.149100
      4 O3           1.2560    -0.2250    -8.5930 oh         1 RAL      -0.532100
      5 C4           0.2990    -0.7610    -6.4650 ca         1 RAL      -0.128000
      6 C5           0.2550    -0.5380    -5.0800 ca         1 RAL      -0.134000
      7 S6          -0.8030    -1.4280    -3.9610 ss         1 RAL       0.077400
      8 C7          -0.1590    -0.4450    -2.6270 cc         1 RAL       0.047400
      9 C8          -0.8330    -0.3840    -1.3310 ca         1 RAL      -0.083800
     10 C9          -0.9050    -1.5350    -0.5210 ca         1 RAL      -0.047000
     11 C10         -1.5570    -1.4840     0.7240 ca         1 RAL      -0.177500
     12 C11         -2.1540    -0.2920     1.1570 ca         1 RAL       0.150100
     13 O11         -2.7890    -0.2550     2.3610 oh         1 RAL      -0.536100
     14 C12         -2.1110     0.8510     0.3440 ca         1 RAL      -0.177500
     15 C13         -1.4580     0.8040    -0.9010 ca         1 RAL      -0.047000
     16 C14          1.0780     0.3960    -4.4710 ca         1 RAL      -0.081800
     17 C15          0.8460     0.4410    -3.0230 cd         1 RAL      -0.141400
     18 C16          1.5830     1.3680    -2.0890 c          1 RAL       0.616900
     19 O16          2.2070     2.3430    -2.4910 o          1 RAL      -0.531100
     20 C17          1.6130     1.0740    -0.6140 ca         1 RAL      -0.214600
     21 C18          1.3110     2.0880     0.3160 ca         1 RAL      -0.019500
     22 C19          1.3190     1.8050     1.6920 ca         1 RAL      -0.194500
     23 C20          1.6390     0.5200     2.1530 ca         1 RAL       0.177100
     24 C21          1.9830    -0.4870     1.2260 ca         1 RAL      -0.194500
     25 C22          1.9770    -0.2070    -0.1510 ca         1 RAL      -0.019500
     26 O23          1.6050     0.2960     3.5130 os         1 RAL      -0.325100
     27 C24          1.8060    -1.0150     4.0770 c3         1 RAL       0.163600
     28 C25          1.6020    -0.9480     5.6160 c3         1 RAL       0.172800
     29 N26          0.2790    -0.4470     6.0960 n3         1 RAL      -0.715600
     30 C27          0.2500    -0.2940     7.5770 c6         1 RAL       0.169300
     31 C28         -1.0720     0.3490     8.0640 c6         1 RAL      -0.074400
     32 C29         -2.2950    -0.4620     7.5780 c6         1 RAL      -0.075400
     33 C30         -2.2310    -0.6460     6.0450 c6         1 RAL      -0.074400
     34 C31         -0.8770    -1.2580     5.6100 c6         1 RAL       0.169300
     35 H1           2.6710     1.8620    -4.8050 ha         1 RAL       0.135000
     36 H2           2.7550     1.4950    -7.2400 ha         1 RAL       0.116000
     37 HO3          1.9370     0.3730    -8.9680 ho         1 RAL       0.467000
     38 H4          -0.3500    -1.5000    -6.9280 ha         1 RAL       0.137000
     39 H9          -0.4430    -2.4620    -0.8510 ha         1 RAL       0.121500
     40 H10         -1.5980    -2.3710     1.3510 ha         1 RAL       0.124000
     41 HO1         -3.1430     0.6490     2.4950 ho         1 RAL       0.469000
     42 H12         -2.5800     1.7770     0.6670 ha         1 RAL       0.124000
     43 H13         -1.4330     1.6920    -1.5290 ha         1 RAL       0.121500
     44 H18          1.0480     3.0870    -0.0280 ha         1 RAL       0.124500
     45 H19          1.0630     2.5840     2.4050 ha         1 RAL       0.125000
     46 H21          2.2500    -1.4880     1.5510 ha         1 RAL       0.125000
     47 H22          2.2390    -0.9920    -0.8590 ha         1 RAL       0.124500
     48 H241         1.1020    -1.7370     3.6440 h1         1 RAL       0.038700
     49 H242         2.8250    -1.3690     3.8700 h1         1 RAL       0.038700
     50 H251         1.7790    -1.9540     6.0190 h1         1 RAL       0.041700
     51 H252         2.3990    -0.3080     6.0200 h1         1 RAL       0.041700
     52 H271         0.3700    -1.2750     8.0620 h1         1 RAL       0.029950
     53 H272         1.0880     0.3350     7.9110 h1         1 RAL       0.029950
     54 H281        -1.0740     0.4120     9.1610 hc         1 RAL       0.045450
     55 H282        -1.1370     1.3800     7.6900 hc         1 RAL       0.045450
     56 H291        -2.3080    -1.4450     8.0700 hc         1 RAL       0.039200
     57 H292        -3.2260     0.0480     7.8610 hc         1 RAL       0.039200
     58 H301        -3.0550    -1.2890     5.7090 hc         1 RAL       0.045450
     59 H302        -2.3680     0.3250     5.5490 hc         1 RAL       0.045450
     60 H311        -0.8740    -1.3230     4.5130 h1         1 RAL       0.029950
     61 H312        -0.8070    -2.2870     5.9960 h1         1 RAL       0.029950
@<TRIPOS>BOND
     1     1     2 ar  
     2     1    16 ar  
     3     1    35 1   
     4     2     3 ar  
     5     2    36 1   
     6     3     4 1   
     7     3     5 ar  
     8     4    37 1   
     9     5     6 ar  
    10     5    38 1   
    11     6     7 1   
    12     6    16 ar  
    13     7     8 1   
    14     8     9 1   
    15     8    17 2   
    16     9    10 ar  
    17     9    15 ar  
    18    10    11 ar  
    19    10    39 1   
    20    11    12 ar  
    21    11    40 1   
    22    12    13 1   
    23    12    14 ar  
    24    13    41 1   
    25    14    15 ar  
    26    14    42 1   
    27    15    43 1   
    28    16    17 1   
    29    17    18 1   
    30    18    19 2   
    31    18    20 1   
    32    20    21 ar  
    33    20    25 ar  
    34    21    22 ar  
    35    21    44 1   
    36    22    23 ar  
    37    22    45 1   
    38    23    24 ar  
    39    23    26 1   
    40    24    25 ar  
    41    24    46 1   
    42    25    47 1   
    43    26    27 1   
    44    27    28 1   
    45    27    48 1   
    46    27    49 1   
    47    28    29 1   
    48    28    50 1   
    49    28    51 1   
    50    29    30 1   
    51    29    34 1   
    52    30    31 1   
    53    30    52 1   
    54    30    53 1   
    55    31    32 1   
    56    31    54 1   
    57    31    55 1   
    58    32    33 1   
    59    32    56 1   
    60    32    57 1   
    61    33    34 1   
    62    33    58 1   
    63    33    59 1   
    64    34    60 1   
    65    34    61 1   
@<TRIPOS>SUBSTRUCTURE
     1 RAL         1 TEMP              0 ****  ****    0 ROOT
