@<TRIPOS>MOLECULE
RAL
   61    65     1     0     0
SMALL
abcg2


@<TRIPOS>ATOM
      1 C1           1.9790     1.2770    -4.9340 ca         1 RAL      -0.019000
      2 C2           2.2330     0.9870    -6.2580 ca         1 RAL      -0.204000
      3 C3           1.5190    -0.0180    -6.9290 ca         1 RAL       0.149100
      4 O3           1.7500    -0.3170    -8.2210 oh         1 RAL      -0.532100
      5 C4           0.5430    -0.7420    -6.2630 ca         1 RAL      -0.128000
      6 C5           0.3010    -0.4360    -4.9290 ca         1 RAL      -0.134000
      7 S6          -0.8640    -1.2080    -3.9090 ss         1 RAL       0.077400
      8 C7          -0.4030    -0.2390    -2.5410 cc         1 RAL       0.047400
      9 C8          -1.1110    -0.4550    -1.2780 ca         1 RAL      -0.083800
     10 C9          -1.2850    -1.7470    -0.7770 ca         1 RAL      -0.047000
     11 C10         -1.8700    -1.9640     0.4560 ca         1 RAL      -0.177500
     12 C11         -2.3030    -0.8820     1.2190 ca         1 RAL       0.150100
     13 O11         -2.8520    -1.1410     2.4200 oh         1 RAL      -0.536100
     14 C12         -2.1660     0.4110     0.7170 ca         1 RAL      -0.177500
     15 C13         -1.5820     0.6150    -0.5190 ca         1 RAL      -0.047000
     16 C14          0.9960     0.5670    -4.2350 ca         1 RAL      -0.081800
     17 C15          0.5890     0.6500    -2.8500 cd         1 RAL      -0.141400
     18 C16          1.1810     1.6330    -1.9100 c          1 RAL       0.616900
     19 O16          1.4390     2.7600    -2.2980 o          1 RAL      -0.531100
     20 C17          1.4370     1.2280    -0.5160 ca         1 RAL      -0.214600
     21 C18          1.4220     2.1990     0.4900 ca         1 RAL      -0.019500
     22 C19          1.5520     1.8450     1.8140 ca         1 RAL      -0.194500
     23 C20          1.7250     0.5020     2.1700 ca         1 RAL       0.177100
     24 C21          1.8170    -0.4660     1.1690 ca         1 RAL      -0.194500
     25 C22          1.6610    -0.0970    -0.1550 ca         1 RAL      -0.019500
     26 O23          1.7920     0.2410     3.4780 os         1 RAL      -0.325100
     27 C24          1.7790    -1.1090     3.9180 c3         1 RAL       0.163600
     28 C25          1.5810    -1.1170     5.4180 c3         1 RAL       0.172800
     29 N26          0.3590    -0.4670     5.8410 n3         1 RAL      -0.715600
     30 C27          0.3770    -0.1570     7.2590 c6         1 RAL       0.169300
     31 C28         -0.8280     0.6850     7.6510 c6         1 RAL      -0.074400
     32 C29         -2.1260    -0.0190     7.2740 c6         1 RAL      -0.075400
     33 C30         -2.0930    -0.4220     5.8050 c6         1 RAL      -0.074400
     34 C31         -0.8350    -1.2160     5.4900 c6         1 RAL       0.169300
     35 H1           2.5470     2.0590    -4.4500 ha         1 RAL       0.135000
     36 H2           2.9970     1.5450    -6.7880 ha         1 RAL       0.116000
     37 HO3          2.4570     0.2340    -8.5740 ho         1 RAL       0.467000
     38 H4          -0.0070    -1.5240    -6.7710 ha         1 RAL       0.137000
     39 H9          -0.9230    -2.5990    -1.3390 ha         1 RAL       0.121500
     40 H10         -1.9820    -2.9710     0.8360 ha         1 RAL       0.124000
     41 HO1         -3.1210    -0.3250     2.8550 ho         1 RAL       0.469000
     42 H12         -2.5190     1.2620     1.2880 ha         1 RAL       0.124000
     43 H13         -1.5000     1.6260    -0.8960 ha         1 RAL       0.121500
     44 H18          1.2590     3.2380     0.2350 ha         1 RAL       0.124500
     45 H19          1.4990     2.5970     2.5920 ha         1 RAL       0.125000
     46 H21          1.9950    -1.5060     1.4020 ha         1 RAL       0.125000
     47 H22          1.7220    -0.8660    -0.9140 ha         1 RAL       0.124500
     48 H241         0.9870    -1.6650     3.4080 h1         1 RAL       0.038700
     49 H242         2.7260    -1.6020     3.6760 h1         1 RAL       0.038700
     50 H251         1.6440    -2.1680     5.7470 h1         1 RAL       0.041700
     51 H252         2.4240    -0.6000     5.8840 h1         1 RAL       0.041700
     52 H271         0.3890    -1.0760     7.8750 h1         1 RAL       0.029950
     53 H272         1.2990     0.3850     7.4870 h1         1 RAL       0.029950
     54 H281        -0.7940     0.8840     8.7250 hc         1 RAL       0.045450
     55 H282        -0.7680     1.6520     7.1440 hc         1 RAL       0.045450
     56 H291        -2.2410    -0.9170     7.8900 hc         1 RAL       0.039200
     57 H292        -2.9870     0.6200     7.4820 hc         1 RAL       0.039200
     58 H301        -2.9710    -1.0200     5.5500 hc         1 RAL       0.045450
     59 H302        -2.1160     0.4720     5.1740 hc         1 RAL       0.045450
     60 H311        -0.8230    -1.4500     4.4240 h1         1 RAL       0.029950
     61 H312        -0.8690    -2.1830     6.0250 h1         1 RAL       0.029950
@<TRIPOS>BOND
     1     1     2 ar  
     2     1    16 ar  
     3     1    35 1   
     4     2     3 ar  
     5     2    36 1   
     6     3     4 1   
     7     3     5 ar  
     8     4    37 1   
     9     5     6 ar  
    10     5    38 1   
    11     6     7 1   
    12     6    16 ar  
    13     7     8 1   
    14     8     9 1   
    15     8    17 2   
    16     9    10 ar  
    17     9    15 ar  
    18    10    11 ar  
    19    10    39 1   
    20    11    12 ar  
    21    11    40 1   
    22    12    13 1   
    23    12    14 ar  
    24    13    41 1   
    25    14    15 ar  
    26    14    42 1   
    27    15    43 1   
    28    16    17 1   
    29    17    18 1   
    30    18    19 2   
    31    18    20 1   
    32    20    21 ar  
    33    20    25 ar  
    34    21    22 ar  
    35    21    44 1   
    36    22    23 ar  
    37    22    45 1   
    38    23    24 ar  
    39    23    26 1   
    40    24    25 ar  
    41    24    46 1   
    42    25    47 1   
    43    26    27 1   
    44    27    28 1   
    45    27    48 1   
    46    27    49 1   
    47    28    29 1   
    48    28    50 1   
    49    28    51 1   
    50    29    30 1   
    51    29    34 1   
    52    30    31 1   
    53    30    52 1   
    54    30    53 1   
    55    31    32 1   
    56    31    54 1   
    57    31    55 1   
    58    32    33 1   
    59    32    56 1   
    60    32    57 1   
    61    33    34 1   
    62    33    58 1   
    63    33    59 1   
    64    34    60 1   
    65    34    61 1   
@<TRIPOS>SUBSTRUCTURE
     1 RAL         1 TEMP              0 ****  ****    0 ROOT
