@<TRIPOS>MOLECULE
RAM
   23    23     1     0     0
SMALL
No Charge or Current Charge


@<TRIPOS>ATOM
      1 C1          75.9140    60.3090    96.7580 c6         1 RAM       0.390300
      2 C2          77.1420    59.3150    96.8650 c6         1 RAM       0.157300
      3 C3          76.7370    57.8860    96.4020 c6         1 RAM       0.143300
      4 C4          75.5140    57.3620    97.2480 c6         1 RAM       0.105300
      5 C5          74.6620    58.5410    97.8460 c6         1 RAM       0.138300
      6 C6          73.1890    58.1440    98.1160 c3         1 RAM      -0.090100
      7 O1          75.9640    61.3150    97.7670 oh         1 RAM      -0.734000
      8 O2          78.3060    59.7910    96.1470 oh         1 RAM      -0.695000
      9 O3          76.4450    57.9080    94.9860 oh         1 RAM      -0.694000
     10 O4          75.9620    56.5000    98.3140 oh         1 RAM      -0.721000
     11 O5          74.6440    59.6450    96.9220 os         1 RAM      -0.466000
     12 H1          75.9260    60.7800    95.7620 h2         1 RAM       0.088700
     13 H2          77.4000    59.2380    97.9310 h1         1 RAM       0.060700
     14 H3          77.5910    57.2150    96.5830 h1         1 RAM       0.051700
     15 H4          74.8670    56.7830    96.5710 h1         1 RAM       0.041700
     16 H5          75.1050    58.8810    98.7940 h1         1 RAM       0.054700
     17 H61         72.6210    58.9930    98.5140 hc         1 RAM       0.044033
     18 H62         72.6910    57.8080    97.1980 hc         1 RAM       0.044033
     19 H63         73.1250    57.3330    98.8500 hc         1 RAM       0.044033
     20 HO1         75.0490    61.6700    97.7920 ho         1 RAM       0.516000
     21 HO2         78.1860    59.4560    95.2260 ho         1 RAM       0.507000
     22 HO3         76.2780    56.9760    94.7110 ho         1 RAM       0.503000
     23 HO4         75.1810    55.9830    98.6240 ho         1 RAM       0.511000
@<TRIPOS>BOND
     1     1     2 1   
     2     1     7 1   
     3     1    11 1   
     4     1    12 1   
     5     2     3 1   
     6     2     8 1   
     7     2    13 1   
     8     3     4 1   
     9     3     9 1   
    10     3    14 1   
    11     4     5 1   
    12     4    10 1   
    13     4    15 1   
    14     5     6 1   
    15     5    11 1   
    16     5    16 1   
    17     6    17 1   
    18     6    18 1   
    19     6    19 1   
    20     7    20 1   
    21     8    21 1   
    22     9    22 1   
    23    10    23 1   
@<TRIPOS>SUBSTRUCTURE
     1 RAM         1 TEMP              0 ****  ****    0 ROOT
