@<TRIPOS>MOLECULE
RAM
   23    23     1     0     0
SMALL
bcc


@<TRIPOS>ATOM
      1 C1          75.8460    60.2600    96.7980 c6         1 RAM       0.343900
      2 C2          77.0090    59.2650    96.7890 c6         1 RAM       0.134100
      3 C3          76.5460    57.9270    96.2290 c6         1 RAM       0.120100
      4 C4          75.4540    57.3500    97.1510 c6         1 RAM       0.082100
      5 C5          74.6760    58.4830    97.8500 c6         1 RAM       0.115100
      6 C6          73.2560    58.0880    98.1960 c3         1 RAM      -0.090100
      7 O1          76.1130    61.2070    97.7850 oh         1 RAM      -0.611800
      8 O2          78.0550    59.8550    96.0610 oh         1 RAM      -0.572800
      9 O3          76.0940    58.1350    94.9140 oh         1 RAM      -0.571800
     10 O4          76.0880    56.5110    98.0880 oh         1 RAM      -0.598800
     11 O5          74.6190    59.6150    97.0000 os         1 RAM      -0.419600
     12 H1          75.7610    60.7340    95.8130 h2         1 RAM       0.088700
     13 H2          77.3170    59.0830    97.8300 h1         1 RAM       0.060700
     14 H3          77.3940    57.2250    96.2460 h1         1 RAM       0.051700
     15 H4          74.7540    56.7760    96.5250 h1         1 RAM       0.041700
     16 H5          75.2070    58.7300    98.7800 h1         1 RAM       0.054700
     17 H61         72.7450    58.8820    98.7400 hc         1 RAM       0.044033
     18 H62         72.6830    57.8590    97.2950 hc         1 RAM       0.044033
     19 H63         73.2500    57.1990    98.8290 hc         1 RAM       0.044033
     20 HO1         75.5260    61.9610    97.6620 ho         1 RAM       0.417000
     21 HO2         78.8430    59.3130    96.1690 ho         1 RAM       0.408000
     22 HO3         75.8430    57.2840    94.5410 ho         1 RAM       0.404000
     23 HO4         75.4180    56.0900    98.6360 ho         1 RAM       0.412000
@<TRIPOS>BOND
     1     1     2 1   
     2     1     7 1   
     3     1    11 1   
     4     1    12 1   
     5     2     3 1   
     6     2     8 1   
     7     2    13 1   
     8     3     4 1   
     9     3     9 1   
    10     3    14 1   
    11     4     5 1   
    12     4    10 1   
    13     4    15 1   
    14     5     6 1   
    15     5    11 1   
    16     5    16 1   
    17     6    17 1   
    18     6    18 1   
    19     6    19 1   
    20     7    20 1   
    21     8    21 1   
    22     9    22 1   
    23    10    23 1   
@<TRIPOS>SUBSTRUCTURE
     1 RAM         1 TEMP              0 ****  ****    0 ROOT
