@<TRIPOS>MOLECULE
RAN
   35    35     1     0     0
SMALL
abcg2


@<TRIPOS>ATOM
      1 C1         -41.7120   -32.2480   -12.2480 c6         1 RAN       0.385300
      2 O1         -41.4490   -33.5980   -11.9210 oh         1 RAN      -0.698000
      3 C2         -43.1950   -31.9700   -11.9630 c6         1 RAN       0.172500
      4 N2         -43.4960   -32.2810   -10.5720 n7         1 RAN      -0.939400
      5 C7         -44.5390   -31.5030    -9.9350 c3         1 RAN       0.408500
      6 O7         -44.0200   -30.2180    -9.5680 oh         1 RAN      -0.672000
      7 C8         -45.0760   -32.2520    -8.7270 c3         1 RAN      -0.125100
      8 C3         -44.0600   -32.6900   -12.9970 c6         1 RAN       0.131300
      9 O3         -45.4300   -32.3270   -12.8190 oh         1 RAN      -0.708000
     10 C4         -43.6010   -32.3280   -14.4000 c6         1 RAN       0.146300
     11 O4         -44.4250   -32.9960   -15.3350 oh         1 RAN      -0.853000
     12 C5         -42.1250   -32.6820   -14.5670 c6         1 RAN       0.119300
     13 O5         -41.3600   -31.9560   -13.5850 os         1 RAN      -0.466000
     14 C6         -41.5710   -32.3680   -15.9440 c3         1 RAN       0.245600
     15 O6         -41.8760   -31.0530   -16.3800 os         1 RAN      -0.588400
     16 P          -42.8220   -30.8610   -17.7530 p5         1 RAN       1.294900
     17 O1P        -42.1170   -31.6180   -18.8670 o          1 RAN      -0.903167
     18 O2P        -42.8620   -29.3530   -17.9090 o          1 RAN      -0.903167
     19 O3P        -44.1900   -31.4770   -17.3960 o          1 RAN      -0.903167
     20 H1         -41.0950   -31.5830   -11.6410 h2         1 RAN       0.043700
     21 HO1        -40.4920   -33.7300   -11.9290 ho         1 RAN       0.431000
     22 H2         -43.3340   -30.8950   -12.0940 h1         1 RAN       0.089700
     23 HN2        -43.6390   -33.2730   -10.4400 hn         1 RAN       0.433000
     24 H7         -45.3560   -31.2650   -10.6200 h2         1 RAN       0.087700
     25 HO7        -43.1940   -30.3800    -9.0900 ho         1 RAN       0.432000
     26 H81        -45.8050   -31.6360    -8.2010 hc         1 RAN       0.033033
     27 H82        -45.5640   -33.1800    -9.0360 hc         1 RAN       0.033033
     28 H83        -44.2620   -32.4970    -8.0410 hc         1 RAN       0.033033
     29 H3         -43.9560   -33.7750   -12.8620 h1         1 RAN       0.028700
     30 HO3        -45.8750   -32.6010   -13.6340 ho         1 RAN       0.474000
     31 H4         -43.7010   -31.2430   -14.5230 h1         1 RAN       0.075700
     32 HO4        -44.3700   -32.4480   -16.1870 ho         1 RAN       0.624000
     33 H5         -41.9910   -33.7570   -14.3990 h1         1 RAN       0.012700
     34 H61        -40.4830   -32.4890   -15.9090 h1         1 RAN       0.013200
     35 H62        -41.9600   -33.1090   -16.6450 h1         1 RAN       0.013200
@<TRIPOS>BOND
     1     1     2 1   
     2     1     3 1   
     3     1    13 1   
     4     1    20 1   
     5     2    21 1   
     6     3     4 1   
     7     3     8 1   
     8     3    22 1   
     9     4     5 1   
    10     4    23 1   
    11     5     6 1   
    12     5     7 1   
    13     5    24 1   
    14     6    25 1   
    15     7    26 1   
    16     7    27 1   
    17     7    28 1   
    18     8     9 1   
    19     8    10 1   
    20     8    29 1   
    21     9    30 1   
    22    10    11 1   
    23    10    12 1   
    24    10    31 1   
    25    11    32 1   
    26    12    13 1   
    27    12    14 1   
    28    12    33 1   
    29    14    15 1   
    30    14    34 1   
    31    14    35 1   
    32    15    16 1   
    33    16    17 1   
    34    16    18 1   
    35    16    19 1   
@<TRIPOS>SUBSTRUCTURE
     1 RAN         1 TEMP              0 ****  ****    0 ROOT
