@<TRIPOS>MOLECULE
RAN
   35    35     1     0     0
SMALL
No Charge or Current Charge


@<TRIPOS>ATOM
      1 C1         -41.6460   -32.2770   -12.1920 c6         1 RAN       0.385300
      2 O1         -41.3460   -33.6530   -11.9380 oh         1 RAN      -0.698000
      3 C2         -43.1530   -31.9060   -11.8900 c6         1 RAN       0.172500
      4 N2         -43.5320   -32.1900   -10.4530 n7         1 RAN      -0.939400
      5 C7         -44.6740   -31.5120    -9.8940 c3         1 RAN       0.408500
      6 O7         -44.0960   -30.2960    -9.5640 oh         1 RAN      -0.672000
      7 C8         -45.1410   -32.2290    -8.6180 c3         1 RAN      -0.125100
      8 C3         -44.0710   -32.6360   -12.9430 c6         1 RAN       0.131300
      9 O3         -45.4650   -32.2990   -12.8350 oh         1 RAN      -0.708000
     10 C4         -43.6100   -32.2960   -14.3910 c6         1 RAN       0.146300
     11 O4         -44.4810   -32.9390   -15.3510 oh         1 RAN      -0.853000
     12 C5         -42.1120   -32.7020   -14.5630 c6         1 RAN       0.119300
     13 O5         -41.3040   -32.0140   -13.5680 os         1 RAN      -0.466000
     14 C6         -41.4990   -32.4030   -15.9770 c3         1 RAN       0.245600
     15 O6         -41.8070   -31.0710   -16.4310 os         1 RAN      -0.588400
     16 P          -42.8050   -30.8760   -17.6750 p5         1 RAN       1.294900
     17 O1P        -42.1780   -31.4300   -18.9040 o          1 RAN      -0.903167
     18 O2P        -43.0680   -29.4240   -17.8560 o          1 RAN      -0.903167
     19 O3P        -44.0810   -31.5850   -17.3860 o          1 RAN      -0.903167
     20 H1         -41.0060   -31.6510   -11.5510 h2         1 RAN       0.043700
     21 HO1        -40.4230   -33.7650   -12.2440 ho         1 RAN       0.431000
     22 H2         -43.2370   -30.8230   -12.0700 h1         1 RAN       0.089700
     23 HN2        -43.7190   -33.1960   -10.3930 hn         1 RAN       0.433000
     24 H7         -45.5110   -31.3770   -10.5950 h2         1 RAN       0.087700
     25 HO7        -43.1570   -30.5390    -9.6910 ho         1 RAN       0.432000
     26 H81        -45.9410   -31.6590    -8.1320 hc         1 RAN       0.033033
     27 H82        -45.5340   -33.2230    -8.8600 hc         1 RAN       0.033033
     28 H83        -44.3190   -32.3470    -7.9000 hc         1 RAN       0.033033
     29 H3         -43.9550   -33.7200   -12.7980 h1         1 RAN       0.028700
     30 HO3        -45.8080   -32.5160   -13.7350 ho         1 RAN       0.474000
     31 H4         -43.6720   -31.2030   -14.5130 h1         1 RAN       0.075700
     32 HO4        -44.3450   -32.3990   -16.2260 ho         1 RAN       0.624000
     33 H5         -42.0150   -33.7850   -14.4000 h1         1 RAN       0.012700
     34 H61        -40.4120   -32.5410   -15.9230 h1         1 RAN       0.013200
     35 H62        -41.8820   -33.1570   -16.6780 h1         1 RAN       0.013200
@<TRIPOS>BOND
     1     1     2 1   
     2     1     3 1   
     3     1    13 1   
     4     1    20 1   
     5     2    21 1   
     6     3     4 1   
     7     3     8 1   
     8     3    22 1   
     9     4     5 1   
    10     4    23 1   
    11     5     6 1   
    12     5     7 1   
    13     5    24 1   
    14     6    25 1   
    15     7    26 1   
    16     7    27 1   
    17     7    28 1   
    18     8     9 1   
    19     8    10 1   
    20     8    29 1   
    21     9    30 1   
    22    10    11 1   
    23    10    12 1   
    24    10    31 1   
    25    11    32 1   
    26    12    13 1   
    27    12    14 1   
    28    12    33 1   
    29    14    15 1   
    30    14    34 1   
    31    14    35 1   
    32    15    16 1   
    33    16    17 1   
    34    16    18 1   
    35    16    19 1   
@<TRIPOS>SUBSTRUCTURE
     1 RAN         1 TEMP              0 ****  ****    0 ROOT
