@<TRIPOS>MOLECULE
RAO
   26    26     1     0     0
SMALL
No Charge or Current Charge


@<TRIPOS>ATOM
      1 C1          -6.2810    13.6490    34.5160 c6         1 RAO       0.382300
      2 O1          -5.8130    12.5200    33.7480 os         1 RAO      -0.484000
      3 C7          -4.8500    11.6670    34.3920 c3         1 RAO       0.152900
      4 O2          -7.4860    15.8500    34.3110 oh         1 RAO      -0.716000
      5 C2          -7.1540    14.6120    33.6350 c6         1 RAO       0.157300
      6 C3          -8.4780    13.8900    33.2410 c6         1 RAO       0.136300
      7 O3          -9.3490    14.7870    32.5240 oh         1 RAO      -0.672000
      8 C4          -9.2160    13.3390    34.4990 c6         1 RAO       0.103300
      9 O4         -10.4090    12.6300    34.0940 oh         1 RAO      -0.727000
     10 C5          -8.2400    12.4340    35.3200 c6         1 RAO       0.147300
     11 O5          -7.0370    13.1680    35.6560 os         1 RAO      -0.465000
     12 C6          -8.8420    11.9470    36.6630 c3         1 RAO      -0.091100
     13 H1          -5.4110    14.2190    34.8780 h2         1 RAO       0.085700
     14 HC71        -4.5430    10.8600    33.7160 h1         1 RAO       0.034700
     15 HC72        -3.9540    12.2350    34.6760 h1         1 RAO       0.034700
     16 HC73        -5.2720    11.2100    35.2970 h1         1 RAO       0.034700
     17 HO2         -8.2940    16.1660    33.8380 ho         1 RAO       0.525000
     18 H2          -6.5920    14.8290    32.7150 h1         1 RAO       0.065700
     19 H3          -8.2160    13.0340    32.5990 h1         1 RAO       0.067700
     20 HO3        -10.2230    14.3310    32.5180 ho         1 RAO       0.465000
     21 H4          -9.4930    14.1930    35.1370 h1         1 RAO       0.058700
     22 HO4        -10.9330    12.4450    34.9080 ho         1 RAO       0.510000
     23 H5          -7.9670    11.5500    34.7240 h1         1 RAO       0.055700
     24 H61         -8.1050    11.3700    37.2340 hc         1 RAO       0.045033
     25 H62         -9.1650    12.7900    37.2850 hc         1 RAO       0.045033
     26 H63         -9.7090    11.2960    36.4990 hc         1 RAO       0.045033
@<TRIPOS>BOND
     1     1     2 1   
     2     1     5 1   
     3     1    11 1   
     4     1    13 1   
     5     2     3 1   
     6     3    14 1   
     7     3    15 1   
     8     3    16 1   
     9     4     5 1   
    10     4    17 1   
    11     5     6 1   
    12     5    18 1   
    13     6     7 1   
    14     6     8 1   
    15     6    19 1   
    16     7    20 1   
    17     8     9 1   
    18     8    10 1   
    19     8    21 1   
    20     9    22 1   
    21    10    11 1   
    22    10    12 1   
    23    10    23 1   
    24    12    24 1   
    25    12    25 1   
    26    12    26 1   
@<TRIPOS>SUBSTRUCTURE
     1 RAO         1 TEMP              0 ****  ****    0 ROOT
