@<TRIPOS>MOLECULE
RAO
   26    26     1     0     0
SMALL
abcg2


@<TRIPOS>ATOM
      1 C1          -6.3350    13.6230    34.5290 c6         1 RAO       0.382300
      2 O1          -5.8500    12.5980    33.7210 os         1 RAO      -0.484000
      3 C7          -4.9010    11.7590    34.3410 c3         1 RAO       0.152900
      4 O2          -7.4500    15.6920    34.3800 oh         1 RAO      -0.716000
      5 C2          -7.1970    14.5200    33.6450 c6         1 RAO       0.157300
      6 C3          -8.4870    13.7950    33.2730 c6         1 RAO       0.136300
      7 O3          -9.2840    14.6940    32.5380 oh         1 RAO      -0.672000
      8 C4          -9.1870    13.3000    34.5310 c6         1 RAO       0.103300
      9 O4         -10.3260    12.5750    34.1210 oh         1 RAO      -0.727000
     10 C5          -8.2300    12.4260    35.3480 c6         1 RAO       0.147300
     11 O5          -7.0420    13.1540    35.6390 os         1 RAO      -0.465000
     12 C6          -8.8250    11.9910    36.6700 c3         1 RAO      -0.091100
     13 H1          -5.5040    14.2070    34.9500 h2         1 RAO       0.085700
     14 HC71        -4.5000    11.1000    33.5720 h1         1 RAO       0.034700
     15 HC72        -4.0730    12.3330    34.7710 h1         1 RAO       0.034700
     16 HC73        -5.3380    11.1410    35.1300 h1         1 RAO       0.034700
     17 HO2         -8.0990    16.2110    33.8930 ho         1 RAO       0.525000
     18 H2          -6.6340    14.7460    32.7280 h1         1 RAO       0.065700
     19 H3          -8.2230    12.9200    32.6610 h1         1 RAO       0.067700
     20 HO3        -10.1610    14.3070    32.4430 ho         1 RAO       0.465000
     21 H4          -9.4740    14.1670    35.1420 h1         1 RAO       0.058700
     22 HO4        -10.9890    12.6150    34.8160 ho         1 RAO       0.510000
     23 H5          -7.9900    11.5310    34.7570 h1         1 RAO       0.055700
     24 H61         -8.1100    11.3950    37.2380 hc         1 RAO       0.045033
     25 H62         -9.1180    12.8500    37.2760 hc         1 RAO       0.045033
     26 H63         -9.7060    11.3710    36.5080 hc         1 RAO       0.045033
@<TRIPOS>BOND
     1     1     2 1   
     2     1     5 1   
     3     1    11 1   
     4     1    13 1   
     5     2     3 1   
     6     3    14 1   
     7     3    15 1   
     8     3    16 1   
     9     4     5 1   
    10     4    17 1   
    11     5     6 1   
    12     5    18 1   
    13     6     7 1   
    14     6     8 1   
    15     6    19 1   
    16     7    20 1   
    17     8     9 1   
    18     8    10 1   
    19     8    21 1   
    20     9    22 1   
    21    10    11 1   
    22    10    12 1   
    23    10    23 1   
    24    12    24 1   
    25    12    25 1   
    26    12    26 1   
@<TRIPOS>SUBSTRUCTURE
     1 RAO         1 TEMP              0 ****  ****    0 ROOT
