@<TRIPOS>MOLECULE
RAQ
   60    64     1     0     0
SMALL
abcg2


@<TRIPOS>ATOM
      1 N1         -20.0060     5.2000    27.3680 ns         1 RAQ      -0.159000
      2 C4         -22.7270     6.5740    30.9190 c6         1 RAQ       0.284100
      3 C5         -22.6520     6.1880    28.4530 c6         1 RAQ       0.240800
      4 C6         -22.0440     4.7890    28.6390 c6         1 RAQ      -0.118400
      5 C7         -20.5100     4.8410    28.5860 c          1 RAQ       0.593100
      6 C8         -18.6770     5.6030    27.1220 ca         1 RAQ      -0.096000
      7 C10        -16.0730     6.3830    26.7880 ca         1 RAQ       0.355900
      8 C13        -17.7720     9.0540    24.8400 ca         1 RAQ      -0.113000
      9 C15        -19.4490     7.5510    25.7350 ca         1 RAQ      -0.113000
     10 C17        -22.5050     4.2190    29.9560 ca         1 RAQ      -0.051300
     11 C20        -18.7400     9.0770    29.8480 c6         1 RAQ      -0.016700
     12 C21        -17.3660     8.4480    30.1260 c6         1 RAQ      -0.112900
     13 C22        -16.2790     9.5100    30.1790 c6         1 RAQ       0.155600
     14 C24        -18.6400     9.9820    28.6160 c6         1 RAQ      -0.112900
     15 O2         -21.6100     8.8550    28.0620 o          1 RAQ      -0.548000
     16 O1         -21.8490     9.3040    30.5000 o          1 RAQ      -0.548000
     17 C19        -19.7510     7.9440    29.7060 c3         1 RAQ      -0.332400
     18 C23        -17.4800    10.9580    28.7570 c6         1 RAQ       0.155600
     19 O3         -16.2420    10.2850    28.9810 os         1 RAQ      -0.461000
     20 N          -22.3140     7.0350    29.5910 n3         1 RAQ      -0.809500
     21 C3         -22.8050     5.0670    31.0210 ca         1 RAQ      -0.077300
     22 C2         -23.2150     4.5150    32.2350 ca         1 RAQ      -0.099000
     23 C1         -23.3230     3.1440    32.4040 ca         1 RAQ      -0.088000
     24 C18        -22.6200     2.8380    30.1130 ca         1 RAQ      -0.083000
     25 C          -23.0230     2.3160    31.3290 ca         1 RAQ       0.127000
     26 CL         -23.1630     0.5790    31.5150 cl         1 RAQ      -0.203000
     27 O          -19.8140     4.6230    29.5630 o          1 RAQ      -0.557100
     28 C16        -18.4370     6.7620    26.3280 ca         1 RAQ      -0.036000
     29 C14        -19.1190     8.6670    25.0070 ca         1 RAQ      -0.077000
     30 C12        -16.7710     8.3130    25.4110 ca         1 RAQ      -0.072000
     31 C11        -17.0790     7.1560    26.1620 ca         1 RAQ      -0.087000
     32 N2         -16.3190     5.3120    27.5050 nb         1 RAQ      -0.650000
     33 C9         -17.6090     4.9270    27.6650 ca         1 RAQ       0.328900
     34 H1         -20.6740     5.3770    26.6340 hn         1 RAQ       0.153000
     35 H2         -22.0210     6.9460    31.6610 h1         1 RAQ       0.067200
     36 H3         -23.7050     6.9980    31.1700 h1         1 RAQ       0.067200
     37 H4         -22.3100     6.6690    27.5440 h1         1 RAQ       0.071200
     38 H5         -23.7390     6.0910    28.3870 h1         1 RAQ       0.071200
     39 H6         -22.3900     4.1560    27.8180 hc         1 RAQ       0.081700
     40 H7         -15.0350     6.6830    26.6740 h4         1 RAQ       0.025100
     41 H8         -17.5380     9.9430    24.2690 ha         1 RAQ       0.120000
     42 H9         -20.4910     7.3050    25.8740 ha         1 RAQ       0.115000
     43 H10        -19.0200     9.6890    30.7110 hc         1 RAQ       0.061700
     44 H11        -17.3830     7.8980    31.0700 hc         1 RAQ       0.058200
     45 H12        -17.1280     7.7330    29.3330 hc         1 RAQ       0.058200
     46 H13        -15.2930     9.0550    30.2800 h1         1 RAQ       0.046200
     47 H14        -16.4430    10.1760    31.0370 h1         1 RAQ       0.046200
     48 H15        -19.5620    10.5460    28.4680 hc         1 RAQ       0.058200
     49 H16        -18.4890     9.3710    27.7250 hc         1 RAQ       0.058200
     50 H17        -19.7660     7.3300    30.6070 h1         1 RAQ       0.100200
     51 H18        -19.4940     7.3060    28.8640 h1         1 RAQ       0.100200
     52 H19        -17.3510    11.5410    27.8460 h1         1 RAQ       0.046200
     53 H20        -17.6700    11.6510    29.5890 h1         1 RAQ       0.046200
     54 H21        -23.4540     5.1700    33.0660 ha         1 RAQ       0.122000
     55 H22        -23.6370     2.7240    33.3490 ha         1 RAQ       0.135000
     56 H23        -22.3910     2.1800    29.2850 ha         1 RAQ       0.131000
     57 H24        -19.9040     9.2700    24.5700 ha         1 RAQ       0.123000
     58 H25        -15.7330     8.6020    25.3020 ha         1 RAQ       0.123000
     59 H26        -17.7760     4.0420    28.2610 h4         1 RAQ       0.042100
     60 S          -21.4540     8.4130    29.4300 s6         1 RAQ       1.257100
@<TRIPOS>BOND
     1     1     5 1   
     2     1     6 1   
     3     1    34 1   
     4     2    20 1   
     5     2    21 1   
     6     2    35 1   
     7     2    36 1   
     8     3     4 1   
     9     3    20 1   
    10     3    37 1   
    11     3    38 1   
    12     4     5 1   
    13     4    10 1   
    14     4    39 1   
    15     5    27 2   
    16     6    28 ar  
    17     6    33 ar  
    18     7    31 ar  
    19     7    32 ar  
    20     7    40 1   
    21     8    29 ar  
    22     8    30 ar  
    23     8    41 1   
    24     9    28 ar  
    25     9    29 ar  
    26     9    42 1   
    27    10    21 ar  
    28    10    24 ar  
    29    11    12 1   
    30    11    14 1   
    31    11    17 1   
    32    11    43 1   
    33    12    13 1   
    34    12    44 1   
    35    12    45 1   
    36    13    19 1   
    37    13    46 1   
    38    13    47 1   
    39    14    18 1   
    40    14    48 1   
    41    14    49 1   
    42    15    60 2   
    43    16    60 2   
    44    17    50 1   
    45    17    51 1   
    46    17    60 1   
    47    18    19 1   
    48    18    52 1   
    49    18    53 1   
    50    20    60 1   
    51    21    22 ar  
    52    22    23 ar  
    53    22    54 1   
    54    23    25 ar  
    55    23    55 1   
    56    24    25 ar  
    57    24    56 1   
    58    25    26 1   
    59    28    31 ar  
    60    29    57 1   
    61    30    31 ar  
    62    30    58 1   
    63    32    33 ar  
    64    33    59 1   
@<TRIPOS>SUBSTRUCTURE
     1 RAQ         1 TEMP              0 ****  ****    0 ROOT
