@<TRIPOS>MOLECULE
RAQ
   60    64     1     0     0
SMALL
No Charge or Current Charge


@<TRIPOS>ATOM
      1 N1         -20.2780     4.9980    27.4990 ns         1 RAQ      -0.159000
      2 C4         -21.8390     6.3850    30.7840 c6         1 RAQ       0.284100
      3 C5         -22.6660     6.2760    28.4850 c6         1 RAQ       0.240800
      4 C6         -22.5920     4.7270    28.4280 c6         1 RAQ      -0.118400
      5 C7         -21.3860     4.1720    27.6370 c          1 RAQ       0.593100
      6 C8         -18.9860     4.7270    26.9630 ca         1 RAQ      -0.096000
      7 C10        -16.4570     4.1150    26.0200 ca         1 RAQ       0.355900
      8 C13        -16.5380     7.7770    25.3330 ca         1 RAQ      -0.113000
      9 C15        -18.6490     7.1010    26.3430 ca         1 RAQ      -0.113000
     10 C17        -22.5370     4.1120    29.8330 ca         1 RAQ      -0.051300
     11 C20        -19.1560    10.2240    29.9110 c6         1 RAQ      -0.016700
     12 C21        -17.8160    10.2450    30.6950 c6         1 RAQ      -0.112900
     13 C22        -17.2260    11.6750    30.7460 c6         1 RAQ       0.155600
     14 C24        -18.9550    10.8950    28.5230 c6         1 RAQ      -0.112900
     15 O2         -21.4390     8.8390    27.8140 o          1 RAQ      -0.548000
     16 O1         -22.3380     9.1830    30.1620 o          1 RAQ      -0.548000
     17 C19        -19.7010     8.7670    29.8110 c3         1 RAQ      -0.332400
     18 C23        -18.3090    12.2940    28.6740 c6         1 RAQ       0.155600
     19 O3         -17.0690    12.1880    29.4060 os         1 RAQ      -0.461000
     20 N          -21.6320     6.8370    29.3850 n3         1 RAQ      -0.809500
     21 C3         -22.1400     4.8920    30.9400 ca         1 RAQ      -0.077300
     22 C2         -22.0640     4.3030    32.2180 ca         1 RAQ      -0.099000
     23 C1         -22.3770     2.9440    32.3940 ca         1 RAQ      -0.088000
     24 C18        -22.8550     2.7500    30.0180 ca         1 RAQ      -0.083000
     25 C          -22.7740     2.1710    31.2940 ca         1 RAQ       0.127000
     26 Cl         -23.1690     0.4700    31.5120 cl         1 RAQ      -0.203000
     27 O          -21.4330     3.0520    27.1390 o          1 RAQ      -0.557100
     28 C16        -18.1920     5.7690    26.4290 ca         1 RAQ      -0.036000
     29 C14        -17.8250     8.0990    25.7950 ca         1 RAQ      -0.077000
     30 C12        -16.0760     6.4530    25.4080 ca         1 RAQ      -0.072000
     31 C11        -16.9020     5.4490    25.9510 ca         1 RAQ      -0.087000
     32 N2         -17.2070     3.1110    26.5280 nb         1 RAQ      -0.650000
     33 C9         -18.4430     3.4190    26.9870 ca         1 RAQ       0.328900
     34 H1         -20.3810     5.9120    27.9240 hn         1 RAQ       0.153000
     35 H2         -20.9540     6.6170    31.3930 h1         1 RAQ       0.067200
     36 H3         -22.6830     6.9240    31.2390 h1         1 RAQ       0.067200
     37 H4         -22.5630     6.6570    27.4580 h1         1 RAQ       0.071200
     38 H5         -23.6680     6.5750    28.8300 h1         1 RAQ       0.071200
     39 H6         -23.4910     4.3390    27.9330 hc         1 RAQ       0.081700
     40 H7         -15.4670     3.8390    25.6570 h4         1 RAQ       0.025100
     41 H8         -15.9030     8.5520    24.9100 ha         1 RAQ       0.120000
     42 H9         -19.6430     7.3720    26.6810 ha         1 RAQ       0.115000
     43 H10        -19.8950    10.8060    30.4820 hc         1 RAQ       0.061700
     44 H11        -17.9680     9.8740    31.7170 hc         1 RAQ       0.058200
     45 H12        -17.0900     9.5700    30.2200 hc         1 RAQ       0.058200
     46 H13        -16.2450    11.6590    31.2410 h1         1 RAQ       0.046200
     47 H14        -17.8880    12.3420    31.3170 h1         1 RAQ       0.046200
     48 H15        -19.9120    11.0010    27.9980 hc         1 RAQ       0.058200
     49 H16        -18.3130    10.2670    27.8920 hc         1 RAQ       0.058200
     50 H17        -19.6740     8.3120    30.8050 h1         1 RAQ       0.100200
     51 H18        -19.0760     8.1700    29.1380 h1         1 RAQ       0.100200
     52 H19        -18.1040    12.7220    27.6830 h1         1 RAQ       0.046200
     53 H20        -18.9890    12.9740    29.2070 h1         1 RAQ       0.046200
     54 H21        -21.7680     4.9000    33.0790 ha         1 RAQ       0.122000
     55 H22        -22.3170     2.4930    33.3820 ha         1 RAQ       0.135000
     56 H23        -23.1590     2.1380    29.1740 ha         1 RAQ       0.131000
     57 H24        -18.1870     9.1230    25.7240 ha         1 RAQ       0.123000
     58 H25        -15.0810     6.2080    25.0420 ha         1 RAQ       0.123000
     59 H26        -18.9980     2.5860    27.4160 h4         1 RAQ       0.042100
     60 S          -21.3960     8.5340    29.2460 s6         1 RAQ       1.257100
@<TRIPOS>BOND
     1     1     5 1   
     2     1     6 1   
     3     1    34 1   
     4     2    20 1   
     5     2    21 1   
     6     2    35 1   
     7     2    36 1   
     8     3     4 1   
     9     3    20 1   
    10     3    37 1   
    11     3    38 1   
    12     4     5 1   
    13     4    10 1   
    14     4    39 1   
    15     5    27 2   
    16     6    28 ar  
    17     6    33 ar  
    18     7    31 ar  
    19     7    32 ar  
    20     7    40 1   
    21     8    29 ar  
    22     8    30 ar  
    23     8    41 1   
    24     9    28 ar  
    25     9    29 ar  
    26     9    42 1   
    27    10    21 ar  
    28    10    24 ar  
    29    11    12 1   
    30    11    14 1   
    31    11    17 1   
    32    11    43 1   
    33    12    13 1   
    34    12    44 1   
    35    12    45 1   
    36    13    19 1   
    37    13    46 1   
    38    13    47 1   
    39    14    18 1   
    40    14    48 1   
    41    14    49 1   
    42    15    60 2   
    43    16    60 2   
    44    17    50 1   
    45    17    51 1   
    46    17    60 1   
    47    18    19 1   
    48    18    52 1   
    49    18    53 1   
    50    20    60 1   
    51    21    22 ar  
    52    22    23 ar  
    53    22    54 1   
    54    23    25 ar  
    55    23    55 1   
    56    24    25 ar  
    57    24    56 1   
    58    25    26 1   
    59    28    31 ar  
    60    29    57 1   
    61    30    31 ar  
    62    30    58 1   
    63    32    33 ar  
    64    33    59 1   
@<TRIPOS>SUBSTRUCTURE
     1 RAQ         1 TEMP              0 ****  ****    0 ROOT
