@<TRIPOS>MOLECULE
RAR
   66    69     1     0     0
SMALL
bcc


@<TRIPOS>ATOM
      1 N01         -3.3030     2.8110     0.8640 nv         1 RAR      -0.954500
      2 C02         -4.4540     2.7670     0.1650 ca         1 RAR       0.753200
      3 C03         -4.5520     2.0470    -1.0510 ca         1 RAR      -0.445900
      4 C04         -3.4080     1.2710    -1.6310 c3         1 RAR       0.041200
      5 C05         -2.9700     0.0950    -0.7870 ca         1 RAR      -0.061300
      6 C06         -3.9240    -0.7970    -0.2900 ca         1 RAR      -0.194000
      7 C07         -3.5390    -1.8870     0.4720 ca         1 RAR       0.121100
      8 O08         -4.3830    -2.7940     0.9910 os         1 RAR      -0.302900
      9 C09         -5.7700    -2.6230     0.7750 c3         1 RAR       0.121700
     10 C10         -2.1760    -2.0930     0.7530 ca         1 RAR       0.087100
     11 O11         -1.8190    -3.1500     1.5260 os         1 RAR      -0.323900
     12 C12         -1.6250    -4.3670     0.8130 c3         1 RAR       0.126700
     13 C13         -1.2150    -1.2120     0.2590 ca         1 RAR      -0.052800
     14 C14          0.1900    -1.4480     0.5790 ce         1 RAR      -0.040200
     15 C15          1.2330    -0.8080     0.0370 cf         1 RAR      -0.222200
     16 C16          2.6020    -1.1650     0.4620 c          1 RAR       0.696300
     17 N17          3.6310    -0.4210    -0.0640 n          1 RAR      -0.252800
     18 N18          3.3290     0.5850    -0.9260 n2         1 RAR      -0.439300
     19 C19          4.2040     1.4990    -1.0960 ce         1 RAR       0.396800
     20 C20          5.0260    -0.7890     0.1850 c6         1 RAR       0.142000
     21 C21          5.6160    -1.5980    -0.9790 c3         1 RAR      -0.089400
     22 C22          4.9100    -2.9150    -1.2750 c3         1 RAR      -0.074400
     23 C23          5.6170    -3.6940    -2.3770 c3         1 RAR      -0.089100
     24 C24          5.8240     0.4660     0.3910 ca         1 RAR      -0.077300
     25 C25          5.4500     1.5820    -0.3560 ca         1 RAR      -0.166900
     26 C26          6.2080     2.7490    -0.3060 ca         1 RAR      -0.097000
     27 C27          7.3360     2.8000     0.4980 ca         1 RAR      -0.128000
     28 C28          7.7000     1.6910     1.2540 ca         1 RAR      -0.113000
     29 C29          6.9460     0.5250     1.2020 ca         1 RAR      -0.114000
     30 O30          2.8340    -2.0690     1.2500 o          1 RAR      -0.592100
     31 C31         -1.6350    -0.1140    -0.5060 ca         1 RAR      -0.152000
     32 C32         -5.7800     2.1240    -1.6640 ca         1 RAR       0.500200
     33 N33         -6.8240     2.8080    -1.1990 nb         1 RAR      -0.805000
     34 C34         -6.6140     3.4520    -0.0510 ca         1 RAR       0.931900
     35 N35         -7.6340     4.2000     0.4330 nv         1 RAR      -0.943500
     36 N36         -5.4810     3.4560     0.6500 nb         1 RAR      -0.857000
     37 HN01        -2.5720     2.1430     0.6900 hn         1 RAR       0.436300
     38 HN0A        -3.3280     3.2080     1.7880 hn         1 RAR       0.436300
     39 H04         -3.7070     0.9040    -2.6170 hc         1 RAR       0.055700
     40 H04A        -2.5470     1.9240    -1.8040 hc         1 RAR       0.055700
     41 H06         -4.9690    -0.6160    -0.5100 ha         1 RAR       0.145000
     42 H09         -6.1350    -1.6840     1.1990 h1         1 RAR       0.043033
     43 H09A        -6.0250    -2.6540    -0.2870 h1         1 RAR       0.043033
     44 H09B        -6.2630    -3.4510     1.2780 h1         1 RAR       0.043033
     45 H12         -2.5460    -4.7080     0.3360 h1         1 RAR       0.038367
     46 H12A        -0.8500    -4.2610     0.0490 h1         1 RAR       0.038367
     47 H12B        -1.3060    -5.1140     1.5370 h1         1 RAR       0.038367
     48 H14          0.3880    -2.2110     1.3230 ha         1 RAR       0.161000
     49 H15          1.1090    -0.0440    -0.7150 ha         1 RAR       0.155000
     50 H19          3.9340     2.2900    -1.7860 h4         1 RAR       0.036800
     51 H20          5.0410    -1.3970     1.0880 h1         1 RAR       0.098700
     52 H21          5.6370    -0.9790    -1.8820 hc         1 RAR       0.047700
     53 H21A         6.6610    -1.7970    -0.7250 hc         1 RAR       0.047700
     54 H22          4.8660    -3.5220    -0.3670 hc         1 RAR       0.048200
     55 H22A         3.8770    -2.7290    -1.5760 hc         1 RAR       0.048200
     56 H23          5.0940    -4.6220    -2.6060 hc         1 RAR       0.031367
     57 H23A         5.6770    -3.1120    -3.2980 hc         1 RAR       0.031367
     58 H23B         6.6370    -3.9530    -2.0850 hc         1 RAR       0.031367
     59 H26          5.9080     3.6140    -0.8860 ha         1 RAR       0.135000
     60 H27          7.9290     3.7040     0.5410 ha         1 RAR       0.135000
     61 H28          8.5800     1.7330     1.8830 ha         1 RAR       0.135000
     62 H29          7.2400    -0.3380     1.7870 ha         1 RAR       0.139000
     63 H31         -0.9020     0.5920    -0.8800 ha         1 RAR       0.138000
     64 H32         -5.9360     1.5980    -2.6020 h4         1 RAR       0.013100
     65 HN35        -8.5550     4.0310     0.0650 hn         1 RAR       0.432800
     66 HN3A        -7.5870     4.5040     1.3900 hn         1 RAR       0.432800
@<TRIPOS>BOND
     1     1     2 1   
     2     1    37 1   
     3     1    38 1   
     4     2     3 ar  
     5     2    36 ar  
     6     3     4 1   
     7     3    32 ar  
     8     4     5 1   
     9     4    39 1   
    10     4    40 1   
    11     5     6 ar  
    12     5    31 ar  
    13     6     7 ar  
    14     6    41 1   
    15     7     8 1   
    16     7    10 ar  
    17     8     9 1   
    18     9    42 1   
    19     9    43 1   
    20     9    44 1   
    21    10    11 1   
    22    10    13 ar  
    23    11    12 1   
    24    12    45 1   
    25    12    46 1   
    26    12    47 1   
    27    13    14 1   
    28    13    31 ar  
    29    14    15 2   
    30    14    48 1   
    31    15    16 1   
    32    15    49 1   
    33    16    17 1   
    34    16    30 2   
    35    17    18 1   
    36    17    20 1   
    37    18    19 2   
    38    19    25 1   
    39    19    50 1   
    40    20    21 1   
    41    20    24 1   
    42    20    51 1   
    43    21    22 1   
    44    21    52 1   
    45    21    53 1   
    46    22    23 1   
    47    22    54 1   
    48    22    55 1   
    49    23    56 1   
    50    23    57 1   
    51    23    58 1   
    52    24    25 ar  
    53    24    29 ar  
    54    25    26 ar  
    55    26    27 ar  
    56    26    59 1   
    57    27    28 ar  
    58    27    60 1   
    59    28    29 ar  
    60    28    61 1   
    61    29    62 1   
    62    31    63 1   
    63    32    33 ar  
    64    32    64 1   
    65    33    34 ar  
    66    34    35 1   
    67    34    36 ar  
    68    35    65 1   
    69    35    66 1   
@<TRIPOS>SUBSTRUCTURE
     1 RAR         1 TEMP              0 ****  ****    0 ROOT
