@<TRIPOS>MOLECULE
RAR
   66    69     1     0     0
SMALL
No Charge or Current Charge


@<TRIPOS>ATOM
      1 N01         -3.1520     2.7060     1.0480 nv         1 RAR      -1.064900
      2 C02         -4.3300     2.7740     0.3870 ca         1 RAR       0.424900
      3 C03         -4.5160     2.1960    -0.8790 ca         1 RAR      -0.315300
      4 C04         -3.4090     1.4580    -1.6340 c3         1 RAR       0.041200
      5 C05         -3.0010     0.1600    -0.9430 ca         1 RAR      -0.061300
      6 C06         -3.9670    -0.8170    -0.6560 ca         1 RAR      -0.176000
      7 C07         -3.6170    -2.0220    -0.0040 ca         1 RAR       0.121100
      8 O08         -4.5920    -2.9680     0.2730 os         1 RAR      -0.326100
      9 C09         -5.9810    -2.7920    -0.0610 c3         1 RAR       0.144900
     10 C10         -2.2500    -2.2470     0.3610 ca         1 RAR       0.087100
     11 O11         -1.7830    -3.3970     0.9970 os         1 RAR      -0.347100
     12 C12         -2.5950    -4.5210     1.3820 c3         1 RAR       0.149900
     13 C13         -1.2780    -1.2590     0.0590 ca         1 RAR      -0.052800
     14 C14          0.1590    -1.4610     0.4280 ce         1 RAR      -0.090200
     15 C15          1.2670    -0.8880    -0.1310 cf         1 RAR      -0.272200
     16 C16          2.6690    -1.1620     0.3130 c          1 RAR       0.629300
     17 N17          3.7490    -0.5070    -0.3480 n          1 RAR      -0.185800
     18 N18          3.5410     0.4300    -1.3590 n2         1 RAR      -0.439300
     19 C19          4.1470     1.5800    -1.3220 ce         1 RAR       0.396800
     20 C20          5.1710    -0.7130     0.0670 c6         1 RAR       0.142000
     21 C21          5.9450    -1.6520    -0.9050 c3         1 RAR      -0.089400
     22 C22          5.3650    -3.0800    -1.0240 c3         1 RAR      -0.074400
     23 C23          6.1900    -3.9900    -1.9550 c3         1 RAR      -0.089100
     24 C24          5.8970     0.6360     0.1910 ca         1 RAR      -0.077300
     25 C25          5.3820     1.7510    -0.5020 ca         1 RAR      -0.166900
     26 C26          6.0330     2.9970    -0.4090 ca         1 RAR      -0.079000
     27 C27          7.1920     3.1280     0.3750 ca         1 RAR      -0.110000
     28 C28          7.7030     2.0170     1.0680 ca         1 RAR      -0.095000
     29 C29          7.0570     0.7720     0.9770 ca         1 RAR      -0.096000
     30 O30          2.8760    -1.9460     1.2340 o          1 RAR      -0.592100
     31 C31         -1.6640    -0.0680    -0.5860 ca         1 RAR      -0.134000
     32 C32         -5.7990     2.3300    -1.4430 ca         1 RAR       0.171900
     33 N33         -6.7890     2.9780    -0.8000 nb         1 RAR      -0.279000
     34 C34         -6.4760     3.4850     0.4000 ca         1 RAR       0.405900
     35 N35         -7.4670     4.1350     1.0510 nv         1 RAR      -1.053900
     36 N36         -5.3030     3.4200     1.0360 nb         1 RAR      -0.331000
     37 HN01        -2.5110     1.9720     0.7670 hn         1 RAR       0.491500
     38 HN0A        -3.1540     2.9430     2.0360 hn         1 RAR       0.491500
     39 H04         -3.7350     1.2300    -2.6560 hc         1 RAR       0.055700
     40 H04A        -2.5420     2.1220    -1.7510 hc         1 RAR       0.055700
     41 H06         -4.9940    -0.6160    -0.9470 ha         1 RAR       0.127000
     42 H09         -6.3950    -1.9090     0.4420 h1         1 RAR       0.043033
     43 H09A        -6.1100    -2.6770    -1.1450 h1         1 RAR       0.043033
     44 H09B        -6.5610    -3.6670     0.2580 h1         1 RAR       0.043033
     45 H12         -3.3680    -4.2190     2.1000 h1         1 RAR       0.038367
     46 H12A        -3.0730    -4.9790     0.5060 h1         1 RAR       0.038367
     47 H12B        -1.9740    -5.2870     1.8620 h1         1 RAR       0.038367
     48 H14          0.3160    -2.1680     1.2450 ha         1 RAR       0.211000
     49 H15          1.1430    -0.1970    -0.9590 ha         1 RAR       0.205000
     50 H19          3.8210     2.4230    -1.9360 h4         1 RAR       0.036800
     51 H20          5.1910    -1.1820     1.0610 h1         1 RAR       0.098700
     52 H21          5.9770    -1.1990    -1.9040 hc         1 RAR       0.047700
     53 H21A         6.9880    -1.7320    -0.5730 hc         1 RAR       0.047700
     54 H22          5.3170    -3.5370    -0.0280 hc         1 RAR       0.048200
     55 H22A         4.3370    -3.0290    -1.4030 hc         1 RAR       0.048200
     56 H23          5.7400    -4.9890    -2.0090 hc         1 RAR       0.031367
     57 H23A         6.2280    -3.5750    -2.9690 hc         1 RAR       0.031367
     58 H23B         7.2170    -4.0970    -1.5840 hc         1 RAR       0.031367
     59 H26          5.6410     3.8620    -0.9410 ha         1 RAR       0.117000
     60 H27          7.6930     4.0900     0.4470 ha         1 RAR       0.117000
     61 H28          8.6000     2.1200     1.6750 ha         1 RAR       0.117000
     62 H29          7.4580    -0.0850     1.5140 ha         1 RAR       0.121000
     63 H31         -0.9210     0.6950    -0.8060 ha         1 RAR       0.120000
     64 H32         -6.0400     1.9140    -2.4200 h4         1 RAR       0.013100
     65 HN35        -8.4210     4.0150     0.7200 hn         1 RAR       0.488000
     66 HN3A        -7.3450     4.3350     2.0410 hn         1 RAR       0.488000
@<TRIPOS>BOND
     1     1     2 1   
     2     1    37 1   
     3     1    38 1   
     4     2     3 ar  
     5     2    36 ar  
     6     3     4 1   
     7     3    32 ar  
     8     4     5 1   
     9     4    39 1   
    10     4    40 1   
    11     5     6 ar  
    12     5    31 ar  
    13     6     7 ar  
    14     6    41 1   
    15     7     8 1   
    16     7    10 ar  
    17     8     9 1   
    18     9    42 1   
    19     9    43 1   
    20     9    44 1   
    21    10    11 1   
    22    10    13 ar  
    23    11    12 1   
    24    12    45 1   
    25    12    46 1   
    26    12    47 1   
    27    13    14 1   
    28    13    31 ar  
    29    14    15 2   
    30    14    48 1   
    31    15    16 1   
    32    15    49 1   
    33    16    17 1   
    34    16    30 2   
    35    17    18 1   
    36    17    20 1   
    37    18    19 2   
    38    19    25 1   
    39    19    50 1   
    40    20    21 1   
    41    20    24 1   
    42    20    51 1   
    43    21    22 1   
    44    21    52 1   
    45    21    53 1   
    46    22    23 1   
    47    22    54 1   
    48    22    55 1   
    49    23    56 1   
    50    23    57 1   
    51    23    58 1   
    52    24    25 ar  
    53    24    29 ar  
    54    25    26 ar  
    55    26    27 ar  
    56    26    59 1   
    57    27    28 ar  
    58    27    60 1   
    59    28    29 ar  
    60    28    61 1   
    61    29    62 1   
    62    31    63 1   
    63    32    33 ar  
    64    32    64 1   
    65    33    34 ar  
    66    34    35 1   
    67    34    36 ar  
    68    35    65 1   
    69    35    66 1   
@<TRIPOS>SUBSTRUCTURE
     1 RAR         1 TEMP              0 ****  ****    0 ROOT
