@<TRIPOS>MOLECULE
RAS
   28    29     1     0     0
SMALL
No Charge or Current Charge


@<TRIPOS>ATOM
      1 N10         -1.6150     0.8020    -0.0570 n7         1 RAS      -0.879400
      2 C11         -2.6030     0.1450     0.8040 c3         1 RAS       0.205000
      3 C12         -3.8500    -0.0800    -0.0140 c2         1 RAS      -0.217200
      4 C13         -4.0670    -1.1190    -0.8380 c2         1 RAS      -0.318000
      5 C9          -0.2730     1.0370     0.5270 c5         1 RAS       0.229800
      6 C1           0.3910     2.2110    -0.2930 c5         1 RAS      -0.073400
      7 C2           1.9410     1.9500    -0.2230 c5         1 RAS      -0.036100
      8 C3           1.9550     0.4480    -0.1310 ca         1 RAS      -0.080300
      9 C8           0.7360    -0.0640     0.2780 ca         1 RAS      -0.128300
     10 C7           0.5660    -1.4520     0.4410 ca         1 RAS      -0.096000
     11 C4           3.0460    -0.3940    -0.4010 ca         1 RAS      -0.099000
     12 C5           2.8870    -1.7850    -0.2510 ca         1 RAS      -0.108000
     13 C6           1.6490    -2.3120     0.1700 ca         1 RAS      -0.115000
     14 H10         -1.5060     0.2380    -0.9050 hn         1 RAS       0.422000
     15 H111        -2.2350    -0.8180     1.1790 h1         1 RAS       0.032700
     16 H112        -2.8360     0.7740     1.6750 h1         1 RAS       0.032700
     17 H13         -3.3240    -1.9060    -0.9770 ha         1 RAS       0.161000
     18 H9          -0.3220     1.2910     1.5970 h1         1 RAS       0.064700
     19 H11          0.0670     2.1900    -1.3410 hc         1 RAS       0.053200
     20 H12          0.1170     3.1970     0.0990 hc         1 RAS       0.053200
     21 H21          2.4670     2.3350    -1.1040 hc         1 RAS       0.053700
     22 H22          2.3900     2.4100     0.6640 hc         1 RAS       0.053700
     23 H7          -0.3810    -1.8670     0.7720 ha         1 RAS       0.111000
     24 H4           3.9990     0.0210    -0.7200 ha         1 RAS       0.113000
     25 H5           3.7210    -2.4520    -0.4560 ha         1 RAS       0.111000
     26 H6           1.5300    -3.3870     0.2890 ha         1 RAS       0.111000
     27 H24         -4.6060     0.6980     0.1120 ha         1 RAS       0.179000
     28 H23         -4.9960    -1.2170    -1.4020 ha         1 RAS       0.161000
@<TRIPOS>BOND
     1     1     2 1   
     2     1     5 1   
     3     1    14 1   
     4     2     3 1   
     5     2    15 1   
     6     2    16 1   
     7     3     4 2   
     8     3    27 1   
     9     4    17 1   
    10     4    28 1   
    11     5     6 1   
    12     5     9 1   
    13     5    18 1   
    14     6     7 1   
    15     6    19 1   
    16     6    20 1   
    17     7     8 1   
    18     7    21 1   
    19     7    22 1   
    20     8     9 ar  
    21     8    11 ar  
    22     9    10 ar  
    23    10    13 ar  
    24    10    23 1   
    25    11    12 ar  
    26    11    24 1   
    27    12    13 ar  
    28    12    25 1   
    29    13    26 1   
@<TRIPOS>SUBSTRUCTURE
     1 RAS         1 TEMP              0 ****  ****    0 ROOT
