@<TRIPOS>MOLECULE
RAS
   28    29     1     0     0
SMALL
abcg2


@<TRIPOS>ATOM
      1 N10         -1.5740     0.7260    -0.2520 n7         1 RAS      -0.879400
      2 C11         -2.5040    -0.0530     0.5440 c3         1 RAS       0.205000
      3 C12         -3.8670     0.0020    -0.0700 c2         1 RAS      -0.217200
      4 C13         -4.5680    -1.0630    -0.4380 c2         1 RAS      -0.318000
      5 C9          -0.2710     0.9830     0.3220 c5         1 RAS       0.229800
      6 C1           0.4150     2.1920    -0.3370 c5         1 RAS      -0.073400
      7 C2           1.9180     1.9800    -0.1240 c5         1 RAS      -0.036100
      8 C3           2.0340     0.4820    -0.0630 ca         1 RAS      -0.080300
      9 C8           0.7930    -0.0930     0.1980 ca         1 RAS      -0.128300
     10 C7           0.6720    -1.4710     0.3040 ca         1 RAS      -0.096000
     11 C4           3.1600    -0.3090    -0.2250 ca         1 RAS      -0.099000
     12 C5           3.0370    -1.6900    -0.1260 ca         1 RAS      -0.108000
     13 C6           1.8000    -2.2670     0.1360 ca         1 RAS      -0.115000
     14 H10         -1.4760     0.3180    -1.1730 hn         1 RAS       0.422000
     15 H111        -2.2140    -1.1020     0.6950 h1         1 RAS       0.032700
     16 H112        -2.5440     0.3990     1.5410 h1         1 RAS       0.032700
     17 H13         -4.1860    -2.0690    -0.3130 ha         1 RAS       0.161000
     18 H9          -0.4270     1.2010     1.3860 h1         1 RAS       0.064700
     19 H11          0.1960     2.1780    -1.4080 hc         1 RAS       0.053200
     20 H12          0.0490     3.1390     0.0590 hc         1 RAS       0.053200
     21 H21          2.5280     2.4270    -0.9090 hc         1 RAS       0.053700
     22 H22          2.2450     2.4230     0.8220 hc         1 RAS       0.053700
     23 H7          -0.2820    -1.9380     0.5130 ha         1 RAS       0.111000
     24 H4           4.1240     0.1370    -0.4370 ha         1 RAS       0.113000
     25 H5           3.9060    -2.3210    -0.2600 ha         1 RAS       0.111000
     26 H6           1.7120    -3.3430     0.2100 ha         1 RAS       0.111000
     27 H24         -4.2760     0.9960    -0.2210 ha         1 RAS       0.179000
     28 H23         -5.5520    -0.9710    -0.8780 ha         1 RAS       0.161000
@<TRIPOS>BOND
     1     1     2 1   
     2     1     5 1   
     3     1    14 1   
     4     2     3 1   
     5     2    15 1   
     6     2    16 1   
     7     3     4 2   
     8     3    27 1   
     9     4    17 1   
    10     4    28 1   
    11     5     6 1   
    12     5     9 1   
    13     5    18 1   
    14     6     7 1   
    15     6    19 1   
    16     6    20 1   
    17     7     8 1   
    18     7    21 1   
    19     7    22 1   
    20     8     9 ar  
    21     8    11 ar  
    22     9    10 ar  
    23    10    13 ar  
    24    10    23 1   
    25    11    12 ar  
    26    11    24 1   
    27    12    13 ar  
    28    12    25 1   
    29    13    26 1   
@<TRIPOS>SUBSTRUCTURE
     1 RAS         1 TEMP              0 ****  ****    0 ROOT
