@<TRIPOS>MOLECULE
RAT
   18    17     1     0     0
SMALL
abcg2


@<TRIPOS>ATOM
      1 O1A         -2.4490    -1.4600    -0.2180 o          1 RAT      -0.745250
      2 C1          -2.4490    -0.2470     0.1010 c          1 RAT       0.694000
      3 O1B         -3.3130     0.3470     0.7700 o          1 RAT      -0.745250
      4 C2          -1.2140     0.5800    -0.3090 c3         1 RAT       0.010300
      5 O2          -1.3060     1.8750     0.2220 oh         1 RAT      -0.761500
      6 C3           0.0730    -0.1200     0.1580 c3         1 RAT       0.184300
      7 O3           0.1600    -1.4100    -0.3990 oh         1 RAT      -0.701000
      8 C4           1.3250     0.6700    -0.2160 c3         1 RAT       0.010300
      9 O4           1.3910     0.9270    -1.5950 oh         1 RAT      -0.761500
     10 C5           2.5810    -0.1170     0.2220 c          1 RAT       0.694000
     11 O5A          3.3380    -0.4690    -0.7120 o          1 RAT      -0.745250
     12 O5B          2.7190    -0.3540     1.4330 o          1 RAT      -0.745250
     13 H2          -1.1900     0.6190    -1.4070 h1         1 RAT       0.039700
     14 HO2         -2.1270     1.8500     0.7430 ho         1 RAT       0.514000
     15 H3           0.0440    -0.1530     1.2600 h1         1 RAT       0.026700
     16 HO3         -0.7660    -1.7220    -0.4630 ho         1 RAT       0.475000
     17 H4           1.2990     1.6170     0.3370 h1         1 RAT       0.039700
     18 HO4          2.1570     0.3900    -1.8710 ho         1 RAT       0.514000
@<TRIPOS>BOND
     1     1     2 1   
     2     2     3 1   
     3     2     4 1   
     4     4     5 1   
     5     4     6 1   
     6     4    13 1   
     7     5    14 1   
     8     6     7 1   
     9     6     8 1   
    10     6    15 1   
    11     7    16 1   
    12     8     9 1   
    13     8    10 1   
    14     8    17 1   
    15     9    18 1   
    16    10    11 1   
    17    10    12 1   
@<TRIPOS>SUBSTRUCTURE
     1 RAT         1 TEMP              0 ****  ****    0 ROOT
