@<TRIPOS>MOLECULE
RAT
   18    17     1     0     0
SMALL
No Charge or Current Charge


@<TRIPOS>ATOM
      1 O1A         -2.5400    -1.4250    -0.3450 o          1 RAT      -0.745250
      2 C1          -2.5110    -0.2710     0.0630 c          1 RAT       0.694000
      3 O1B         -3.4060     0.2340     0.7310 o          1 RAT      -0.745250
      4 C2          -1.2400     0.6120    -0.2220 c3         1 RAT       0.010300
      5 O2          -1.3130     1.8750     0.5090 oh         1 RAT      -0.761500
      6 C3           0.0950    -0.1470     0.0940 c3         1 RAT       0.184300
      7 O3           0.0960    -1.4320    -0.5530 oh         1 RAT      -0.701000
      8 C4           1.3870     0.6480    -0.2920 c3         1 RAT       0.010300
      9 O4           1.5040     0.8250    -1.7420 oh         1 RAT      -0.761500
     10 C5           2.6520    -0.0440     0.3310 c          1 RAT       0.694000
     11 O5A          3.4290    -0.6120    -0.4300 o          1 RAT      -0.745250
     12 O5B          2.8940     0.1340     1.5180 o          1 RAT      -0.745250
     13 H2          -1.2610     0.8210    -1.3000 h1         1 RAT       0.039700
     14 HO2         -2.2140     1.8540     0.9270 ho         1 RAT       0.514000
     15 H3           0.1170    -0.3040     1.1810 h1         1 RAT       0.026700
     16 HO3         -0.8670    -1.6910    -0.5790 ho         1 RAT       0.475000
     17 H4           1.3230     1.6350     0.1850 h1         1 RAT       0.039700
     18 HO4          2.1280     0.1090    -2.0200 ho         1 RAT       0.514000
@<TRIPOS>BOND
     1     1     2 1   
     2     2     3 1   
     3     2     4 1   
     4     4     5 1   
     5     4     6 1   
     6     4    13 1   
     7     5    14 1   
     8     6     7 1   
     9     6     8 1   
    10     6    15 1   
    11     7    16 1   
    12     8     9 1   
    13     8    10 1   
    14     8    17 1   
    15     9    18 1   
    16    10    11 1   
    17    10    12 1   
@<TRIPOS>SUBSTRUCTURE
     1 RAT         1 TEMP              0 ****  ****    0 ROOT
