@<TRIPOS>MOLECULE
RAU
   26    27     1     0     0
SMALL
abcg2


@<TRIPOS>ATOM
      1 CAH         -0.2390    -2.2030    -0.2640 c5         1 RAU      -0.090400
      2 CAG         -1.7510    -2.0700    -0.0430 c5         1 RAU      -0.030100
      3 CAE         -1.9470    -0.5790    -0.0350 ca         1 RAU      -0.089300
      4 CAD         -3.1140     0.1450    -0.2200 ca         1 RAU      -0.099000
      5 CAC         -3.0600     1.5350    -0.1860 ca         1 RAU      -0.110000
      6 CAB         -1.8500     2.1850     0.0290 ca         1 RAU      -0.115000
      7 CAA         -0.6800     1.4560     0.2170 ca         1 RAU      -0.081000
      8 CAF         -0.7350     0.0700     0.1860 ca         1 RAU      -0.077300
      9 CAI          0.3700    -0.9470     0.3740 c5         1 RAU       0.214800
     10 NAJ          1.6440    -0.5880    -0.2280 n7         1 RAU      -0.847400
     11 CAK          2.5310     0.1130     0.6860 c3         1 RAU       0.242900
     12 CAL          3.7920     0.4550     0.0340 c1         1 RAU      -0.149100
     13 CAM          4.8310     0.7240    -0.5060 c1         1 RAU      -0.231000
     14 HAH1         0.1800    -3.1220     0.1450 hc         1 RAU       0.052700
     15 HAH2        -0.0260    -2.1840    -1.3370 hc         1 RAU       0.052700
     16 HAG1        -2.3390    -2.5760    -0.8090 hc         1 RAU       0.053200
     17 HAG2        -2.0440    -2.4990     0.9200 hc         1 RAU       0.053200
     18 HAI          0.4860    -1.1310     1.4570 h1         1 RAU       0.035700
     19 HAD         -4.0560    -0.3590    -0.4040 ha         1 RAU       0.112000
     20 HAC         -3.9620     2.1150    -0.3380 ha         1 RAU       0.111000
     21 HAB         -1.8160     3.2670     0.0450 ha         1 RAU       0.111000
     22 HAA          0.2530     1.9820     0.3810 ha         1 RAU       0.116000
     23 HAJ          2.1100    -1.4370    -0.5270 hn         1 RAU       0.417000
     24 HAK1         2.0550     1.0390     1.0180 h1         1 RAU       0.045700
     25 HAK2         2.7470    -0.4570     1.6020 h1         1 RAU       0.045700
     26 HAM          5.7520     0.9630    -0.9860 ha         1 RAU       0.254000
@<TRIPOS>BOND
     1     1     2 1   
     2     1     9 1   
     3     1    14 1   
     4     1    15 1   
     5     2     3 1   
     6     2    16 1   
     7     2    17 1   
     8     3     4 ar  
     9     3     8 ar  
    10     4     5 ar  
    11     4    19 1   
    12     5     6 ar  
    13     5    20 1   
    14     6     7 ar  
    15     6    21 1   
    16     7     8 ar  
    17     7    22 1   
    18     8     9 1   
    19     9    10 1   
    20     9    18 1   
    21    10    11 1   
    22    10    23 1   
    23    11    12 1   
    24    11    24 1   
    25    11    25 1   
    26    12    13 3   
    27    13    26 1   
@<TRIPOS>SUBSTRUCTURE
     1 RAU         1 TEMP              0 ****  ****    0 ROOT
