@<TRIPOS>MOLECULE
RAU
   26    27     1     0     0
SMALL
No Charge or Current Charge


@<TRIPOS>ATOM
      1 CAH         -0.2020    -2.1740    -0.2630 c5         1 RAU      -0.090400
      2 CAG         -1.7670    -2.0820    -0.1270 c5         1 RAU      -0.030100
      3 CAE         -1.9450    -0.5880    -0.0760 ca         1 RAU      -0.089300
      4 CAD         -3.1340     0.1180    -0.3150 ca         1 RAU      -0.099000
      5 CAC         -3.1270     1.5210    -0.2070 ca         1 RAU      -0.110000
      6 CAB         -1.9400     2.1960     0.1420 ca         1 RAU      -0.115000
      7 CAA         -0.7560     1.4710     0.3830 ca         1 RAU      -0.081000
      8 CAF         -0.7730     0.0690     0.2600 ca         1 RAU      -0.077300
      9 CAI          0.3630    -0.9090     0.4940 c5         1 RAU       0.214800
     10 NAJ          1.6620    -0.5770    -0.1430 n7         1 RAU      -0.847400
     11 CAK          2.5760     0.2630     0.6460 c3         1 RAU       0.242900
     12 CAL          3.8510     0.4090    -0.0650 c1         1 RAU      -0.149100
     13 CAM          4.9150     0.5090    -0.6350 c1         1 RAU      -0.231000
     14 HAH1         0.1950    -3.1120     0.1410 hc         1 RAU       0.052700
     15 HAH2         0.0690    -2.1490    -1.3250 hc         1 RAU       0.052700
     16 HAG1        -2.2850    -2.5510    -0.9710 hc         1 RAU       0.053200
     17 HAG2        -2.1230    -2.5590     0.7940 hc         1 RAU       0.053200
     18 HAI          0.4780    -1.1210     1.5670 h1         1 RAU       0.035700
     19 HAD         -4.0480    -0.4100    -0.5770 ha         1 RAU       0.112000
     20 HAC         -4.0400     2.0850    -0.3890 ha         1 RAU       0.111000
     21 HAB         -1.9380     3.2800     0.2310 ha         1 RAU       0.111000
     22 HAA          0.1510     1.9980     0.6610 ha         1 RAU       0.116000
     23 HAJ          2.1650    -1.4550    -0.3110 hn         1 RAU       0.417000
     24 HAK1         2.1590     1.2630     0.8210 h1         1 RAU       0.045700
     25 HAK2         2.7750    -0.1920     1.6260 h1         1 RAU       0.045700
     26 HAM          5.8510     0.5960    -1.1510 ha         1 RAU       0.254000
@<TRIPOS>BOND
     1     1     2 1   
     2     1     9 1   
     3     1    14 1   
     4     1    15 1   
     5     2     3 1   
     6     2    16 1   
     7     2    17 1   
     8     3     4 ar  
     9     3     8 ar  
    10     4     5 ar  
    11     4    19 1   
    12     5     6 ar  
    13     5    20 1   
    14     6     7 ar  
    15     6    21 1   
    16     7     8 ar  
    17     7    22 1   
    18     8     9 1   
    19     9    10 1   
    20     9    18 1   
    21    10    11 1   
    22    10    23 1   
    23    11    12 1   
    24    11    24 1   
    25    11    25 1   
    26    12    13 3   
    27    13    26 1   
@<TRIPOS>SUBSTRUCTURE
     1 RAU         1 TEMP              0 ****  ****    0 ROOT
