@<TRIPOS>MOLECULE
RAV
   34    34     1     0     0
SMALL
abcg2


@<TRIPOS>ATOM
      1 C1           0.0740     0.4210     0.2890 c6         1 RAV      -0.201000
      2 C2           1.1190     1.1230    -0.5670 c          1 RAV       0.587000
      3 N3           2.2540     0.4300    -0.8910 ns         1 RAV      -0.477000
      4 C4           2.5770    -0.8520    -0.5210 c          1 RAV       0.634000
      5 N5           1.6690    -1.4670     0.3040 ns         1 RAV      -0.477000
      6 C6           0.5140    -0.9310     0.8130 c          1 RAV       0.587000
      7 O7          -0.1250    -1.5460     1.6350 o          1 RAV      -0.506000
      8 O8           0.9600     2.2530    -0.9680 o          1 RAV      -0.506000
      9 O9           3.5910    -1.3940    -0.8870 o          1 RAV      -0.533000
     10 C12         -0.2280     1.3380     1.4920 c3         1 RAV      -0.061400
     11 C13         -1.1790     0.2320    -0.6420 c3         1 RAV      -0.040700
     12 C14         -0.8720    -0.7060    -1.8100 c3         1 RAV      -0.102100
     13 C15         -2.4540    -0.1930     0.0900 c3         1 RAV      -0.076400
     14 C16         -3.7060    -0.0800    -0.7780 c3         1 RAV      -0.075400
     15 C17         -4.9740    -0.3450     0.0240 c3         1 RAV      -0.090100
     16 C18          0.9900     1.6720     2.3430 c3         1 RAV      -0.101100
     17 HN3          2.9280     0.9000    -1.4840 hn         1 RAV       0.349000
     18 HN5          1.9230    -2.3950     0.6220 hn         1 RAV       0.349000
     19 H12         -0.6830     2.2560     1.1150 hc         1 RAV       0.068200
     20 H12A        -0.9770     0.8560     2.1180 hc         1 RAV       0.068200
     21 H13         -1.3670     1.2320    -1.0450 hc         1 RAV       0.070700
     22 H14          0.0280    -0.4230    -2.3580 hc         1 RAV       0.042033
     23 H14A        -0.7530    -1.7390    -1.4770 hc         1 RAV       0.042033
     24 H14B        -1.6850    -0.6940    -2.5330 hc         1 RAV       0.042033
     25 H15         -2.3660    -1.2180     0.4570 hc         1 RAV       0.052700
     26 H15A        -2.6050     0.4400     0.9660 hc         1 RAV       0.052700
     27 H16         -3.7540     0.9200    -1.2200 hc         1 RAV       0.038200
     28 H16A        -3.6610    -0.7820    -1.6130 hc         1 RAV       0.038200
     29 H17         -4.9550    -1.3400     0.4720 hc         1 RAV       0.034033
     30 H17A        -5.0900     0.3780     0.8330 hc         1 RAV       0.034033
     31 H17B        -5.8630    -0.2840    -0.6050 hc         1 RAV       0.034033
     32 H18          0.6920     2.2900     3.1900 hc         1 RAV       0.041700
     33 H18A         1.4650     0.7780     2.7520 hc         1 RAV       0.041700
     34 H18B         1.7480     2.2290     1.7920 hc         1 RAV       0.041700
@<TRIPOS>BOND
     1     1     2 1   
     2     1     6 1   
     3     1    10 1   
     4     1    11 1   
     5     2     3 1   
     6     2     8 2   
     7     3     4 1   
     8     3    17 1   
     9     4     5 1   
    10     4     9 2   
    11     5     6 1   
    12     5    18 1   
    13     6     7 2   
    14    10    16 1   
    15    10    19 1   
    16    10    20 1   
    17    11    12 1   
    18    11    13 1   
    19    11    21 1   
    20    12    22 1   
    21    12    23 1   
    22    12    24 1   
    23    13    14 1   
    24    13    25 1   
    25    13    26 1   
    26    14    15 1   
    27    14    27 1   
    28    14    28 1   
    29    15    29 1   
    30    15    30 1   
    31    15    31 1   
    32    16    32 1   
    33    16    33 1   
    34    16    34 1   
@<TRIPOS>SUBSTRUCTURE
     1 RAV         1 TEMP              0 ****  ****    0 ROOT
