@<TRIPOS>MOLECULE
RAV
   34    34     1     0     0
SMALL
No Charge or Current Charge


@<TRIPOS>ATOM
      1 C1           0.0980     0.4090     0.2520 c6         1 RAV      -0.201000
      2 C2           1.1870     1.0980    -0.6010 c          1 RAV       0.587000
      3 N3           2.3300     0.4070    -0.8450 ns         1 RAV      -0.477000
      4 C4           2.6780    -0.8280    -0.4290 c          1 RAV       0.634000
      5 N5           1.7600    -1.4370     0.3500 ns         1 RAV      -0.477000
      6 C6           0.5520    -0.9770     0.7660 c          1 RAV       0.587000
      7 O7          -0.1110    -1.6450     1.5410 o          1 RAV      -0.506000
      8 O8           1.0510     2.2240    -1.0520 o          1 RAV      -0.506000
      9 O9           3.7350    -1.3470    -0.7250 o          1 RAV      -0.533000
     10 C12         -0.1740     1.3380     1.4990 c3         1 RAV      -0.061400
     11 C13         -1.2010     0.2590    -0.6620 c3         1 RAV      -0.040700
     12 C14         -0.9480    -0.6680    -1.8860 c3         1 RAV      -0.102100
     13 C15         -2.5160    -0.1510     0.0830 c3         1 RAV      -0.076400
     14 C16         -3.8000    -0.1230    -0.7830 c3         1 RAV      -0.075400
     15 C17         -5.0810    -0.3810     0.0350 c3         1 RAV      -0.090100
     16 C18          1.0630     1.6700     2.3670 c3         1 RAV      -0.101100
     17 HN3          3.0140     0.8810    -1.4150 hn         1 RAV       0.349000
     18 HN5          2.0190    -2.3500     0.6890 hn         1 RAV       0.349000
     19 H12         -0.6240     2.2840     1.1710 hc         1 RAV       0.068200
     20 H12A        -0.9090     0.8750     2.1690 hc         1 RAV       0.068200
     21 H13         -1.4130     1.2530    -1.0790 hc         1 RAV       0.070700
     22 H14         -0.0200    -0.4090    -2.4080 hc         1 RAV       0.042033
     23 H14A        -0.8810    -1.7190    -1.5780 hc         1 RAV       0.042033
     24 H14B        -1.7530    -0.5810    -2.6240 hc         1 RAV       0.042033
     25 H15         -2.4090    -1.1560     0.5070 hc         1 RAV       0.052700
     26 H15A        -2.6880     0.5300     0.9230 hc         1 RAV       0.052700
     27 H16         -3.8860     0.8510    -1.2810 hc         1 RAV       0.038200
     28 H16A        -3.7400    -0.8850    -1.5690 hc         1 RAV       0.038200
     29 H17         -5.0390    -1.3620     0.5230 hc         1 RAV       0.034033
     30 H17A        -5.2100     0.3860     0.8080 hc         1 RAV       0.034033
     31 H17B        -5.9620    -0.3610    -0.6180 hc         1 RAV       0.034033
     32 H18          0.7660     2.2800     3.2290 hc         1 RAV       0.041700
     33 H18A         1.5350     0.7570     2.7490 hc         1 RAV       0.041700
     34 H18B         1.8110     2.2370     1.8000 hc         1 RAV       0.041700
@<TRIPOS>BOND
     1     1     2 1   
     2     1     6 1   
     3     1    10 1   
     4     1    11 1   
     5     2     3 1   
     6     2     8 2   
     7     3     4 1   
     8     3    17 1   
     9     4     5 1   
    10     4     9 2   
    11     5     6 1   
    12     5    18 1   
    13     6     7 2   
    14    10    16 1   
    15    10    19 1   
    16    10    20 1   
    17    11    12 1   
    18    11    13 1   
    19    11    21 1   
    20    12    22 1   
    21    12    23 1   
    22    12    24 1   
    23    13    14 1   
    24    13    25 1   
    25    13    26 1   
    26    14    15 1   
    27    14    27 1   
    28    14    28 1   
    29    15    29 1   
    30    15    30 1   
    31    15    31 1   
    32    16    32 1   
    33    16    33 1   
    34    16    34 1   
@<TRIPOS>SUBSTRUCTURE
     1 RAV         1 TEMP              0 ****  ****    0 ROOT
