@<TRIPOS>MOLECULE
RAY
   30    30     1     0     0
SMALL
No Charge or Current Charge


@<TRIPOS>ATOM
      1 C4          30.0270    10.1120    68.5400 c          1 RAY       0.612100
      2 C5          31.2480     9.3140    66.4180 ca         1 RAY       0.012000
      3 C6          30.1440     9.0160    65.5860 ca         1 RAY      -0.154000
      4 C7          30.3440     8.5420    64.2770 ca         1 RAY      -0.060000
      5 C8          31.6480     8.3600    63.7870 ca         1 RAY      -0.181000
      6 C9          32.7440     8.6520    64.6080 ca         1 RAY       0.198000
      7 C10         32.5480     9.1250    65.9140 ca         1 RAY      -0.214000
      8 F           33.9990     8.4770    64.1390 f          1 RAY      -0.181000
      9 N           31.1240     9.7950    67.7500 ns         1 RAY      -0.133000
     10 O2          28.8600    10.0230    68.1690 o          1 RAY      -0.584100
     11 C3          30.3920    10.5940    69.9650 c3         1 RAY       0.068600
     12 O1          31.7850    10.9860    70.0800 os         1 RAY      -0.467000
     13 C2          32.1840    11.4140    71.3990 c3         1 RAY       0.166600
     14 C1          33.6860    11.7840    71.3720 c3         1 RAY       0.155600
     15 O           34.4670    10.5800    71.2290 os         1 RAY      -0.447000
     16 C           35.8880    10.7940    71.1800 c3         1 RAY       0.143900
     17 H1          29.1230     9.1430    65.9330 ha         1 RAY       0.150000
     18 H2          29.4880     8.3160    63.6430 ha         1 RAY       0.118000
     19 H3          31.8080     7.9940    62.7760 ha         1 RAY       0.133000
     20 H4          33.4140     9.3450    66.5330 ha         1 RAY       0.132000
     21 H5          32.0090     9.9430    68.2200 hn         1 RAY       0.181000
     22 H6          29.7320    11.4350    70.2100 h1         1 RAY       0.058200
     23 H7          30.1700     9.7670    70.6520 h1         1 RAY       0.058200
     24 H8          31.6060    12.2960    71.7040 h1         1 RAY       0.037200
     25 H9          32.0160    10.6210    72.1400 h1         1 RAY       0.037200
     26 H10         33.9410    12.2950    72.3100 h1         1 RAY       0.033700
     27 H11         33.8760    12.4790    70.5430 h1         1 RAY       0.033700
     28 H12         36.4140     9.8370    71.0710 h1         1 RAY       0.030700
     29 H13         36.1570    11.4300    70.3270 h1         1 RAY       0.030700
     30 H14         36.2420    11.2760    72.1000 h1         1 RAY       0.030700
@<TRIPOS>BOND
     1     1     9 1   
     2     1    10 2   
     3     1    11 1   
     4     2     3 ar  
     5     2     7 ar  
     6     2     9 1   
     7     3     4 ar  
     8     3    17 1   
     9     4     5 ar  
    10     4    18 1   
    11     5     6 ar  
    12     5    19 1   
    13     6     7 ar  
    14     6     8 1   
    15     7    20 1   
    16     9    21 1   
    17    11    12 1   
    18    11    22 1   
    19    11    23 1   
    20    12    13 1   
    21    13    14 1   
    22    13    24 1   
    23    13    25 1   
    24    14    15 1   
    25    14    26 1   
    26    14    27 1   
    27    15    16 1   
    28    16    28 1   
    29    16    29 1   
    30    16    30 1   
@<TRIPOS>SUBSTRUCTURE
     1 RAY         1 TEMP              0 ****  ****    0 ROOT
