@<TRIPOS>MOLECULE
RAY
   30    30     1     0     0
SMALL
bcc


@<TRIPOS>ATOM
      1 C4          30.1180    10.1260    68.5330 c          1 RAY       0.679100
      2 C5          31.3000     9.3610    66.4890 ca         1 RAY       0.104600
      3 C6          30.2010     9.0180    65.6990 ca         1 RAY      -0.172000
      4 C7          30.4100     8.5160    64.4220 ca         1 RAY      -0.078000
      5 C8          31.6830     8.3400    63.9010 ca         1 RAY      -0.199000
      6 C9          32.7500     8.6880    64.7070 ca         1 RAY       0.162900
      7 C10         32.5900     9.1910    65.9790 ca         1 RAY      -0.232000
      8 F           33.9980     8.5380    64.2360 f          1 RAY      -0.145900
      9 N           31.2130     9.8790    67.7810 ns         1 RAY      -0.459100
     10 O2          28.9660     9.9200    68.1980 o          1 RAY      -0.584100
     11 C3          30.4200    10.6880    69.9100 c3         1 RAY       0.045400
     12 O1          31.7680    11.0340    70.0250 os         1 RAY      -0.420600
     13 C2          32.1630    11.3580    71.3400 c3         1 RAY       0.143400
     14 C1          33.6350    11.6770    71.3520 c3         1 RAY       0.132400
     15 O           34.3700    10.5290    71.0180 os         1 RAY      -0.400600
     16 C           35.7540    10.7650    70.9940 c3         1 RAY       0.120700
     17 H1          29.1950     9.1410    66.0630 ha         1 RAY       0.168000
     18 H2          29.5520     8.2550    63.8180 ha         1 RAY       0.136000
     19 H3          31.8410     7.9490    62.9060 ha         1 RAY       0.151000
     20 H4          33.4610     9.4470    66.5720 ha         1 RAY       0.150000
     21 H5          32.0930    10.1000    68.2260 hn         1 RAY       0.347500
     22 H6          29.7580    11.5490    70.0710 h1         1 RAY       0.058200
     23 H7          30.1320     9.9230    70.6440 h1         1 RAY       0.058200
     24 H8          31.6140    12.2340    71.7070 h1         1 RAY       0.037200
     25 H9          31.9460    10.5270    72.0240 h1         1 RAY       0.037200
     26 H10         33.8950    12.0400    72.3570 h1         1 RAY       0.033700
     27 H11         33.8460    12.5000    70.6540 h1         1 RAY       0.033700
     28 H12         36.2500     9.8370    70.7130 h1         1 RAY       0.030700
     29 H13         36.0270    11.5370    70.2650 h1         1 RAY       0.030700
     30 H14         36.1380    11.0780    71.9730 h1         1 RAY       0.030700
@<TRIPOS>BOND
     1     1     9 1   
     2     1    10 2   
     3     1    11 1   
     4     2     3 ar  
     5     2     7 ar  
     6     2     9 1   
     7     3     4 ar  
     8     3    17 1   
     9     4     5 ar  
    10     4    18 1   
    11     5     6 ar  
    12     5    19 1   
    13     6     7 ar  
    14     6     8 1   
    15     7    20 1   
    16     9    21 1   
    17    11    12 1   
    18    11    22 1   
    19    11    23 1   
    20    12    13 1   
    21    13    14 1   
    22    13    24 1   
    23    13    25 1   
    24    14    15 1   
    25    14    26 1   
    26    14    27 1   
    27    15    16 1   
    28    16    28 1   
    29    16    29 1   
    30    16    30 1   
@<TRIPOS>SUBSTRUCTURE
     1 RAY         1 TEMP              0 ****  ****    0 ROOT
