@<TRIPOS>MOLECULE
RAZ
   41    41     1     0     0
SMALL
bcc


@<TRIPOS>ATOM
      1 C01         -1.3000    -0.5160     0.2690 c6         1 RAZ       0.141500
      2 C02         -2.5820    -1.3260     0.1400 c6         1 RAZ      -0.051200
      3 C03         -1.2760     0.5680    -0.8000 c6         1 RAZ      -0.098400
      4 C05         -3.7770    -0.4240     0.0260 c2         1 RAZ      -0.194200
      5 C07         -2.4170     1.5500    -0.5660 c6         1 RAZ      -0.047200
      6 N08         -0.0730    -1.3940     0.1470 nx         1 RAZ      -0.696400
      7 C09          3.6390    -0.5130     0.3690 c2         1 RAZ      -0.231200
      8 C11          1.1790    -0.6770     0.5730 c3         1 RAZ       0.118800
      9 C14          4.1520     0.6470    -0.0490 c2         1 RAZ      -0.045400
     10 C17          3.5690     1.4780    -1.1520 c3         1 RAZ      -0.073900
     11 C18          5.3880     1.2170     0.5800 c3         1 RAZ      -0.073900
     12 C19         -0.1920    -2.6790     0.8850 c3         1 RAZ       0.101100
     13 C31         -3.7240     0.8720    -0.2750 c2         1 RAZ      -0.082400
     14 C32         -4.9440     1.7370    -0.3320 c3         1 RAZ      -0.061900
     15 H01         -1.2380    -0.0760     1.2680 hx         1 RAZ       0.102700
     16 H021        -2.5280    -1.9840    -0.7350 hc         1 RAZ       0.064200
     17 H022        -2.7180    -1.9760     1.0060 hc         1 RAZ       0.064200
     18 H031        -0.3360     1.1210    -0.8140 hc         1 RAZ       0.062700
     19 H032        -1.3860     0.0990    -1.7830 hc         1 RAZ       0.062700
     20 H05         -4.7370    -0.8880     0.2240 ha         1 RAZ       0.154000
     21 H071        -2.1700     2.2290     0.2580 hc         1 RAZ       0.074700
     22 H072        -2.5210     2.1890    -1.4470 hc         1 RAZ       0.074700
     23 H08          0.0240    -1.6270    -0.8440 hn         1 RAZ       0.437800
     24 H09          4.1280    -1.0290     1.1900 ha         1 RAZ       0.140000
     25 H101         2.2840    -0.9980    -1.2380 hc         1 RAZ       0.060700
     26 H102         2.5100    -2.2630    -0.0490 hc         1 RAZ       0.060700
     27 H111         1.0460     0.3860     0.3860 hx         1 RAZ       0.098700
     28 H112         1.2670    -0.8130     1.6500 hx         1 RAZ       0.098700
     29 H171         2.6650     1.0590    -1.5900 hc         1 RAZ       0.053533
     30 H172         3.3250     2.4770    -0.7840 hc         1 RAZ       0.053533
     31 H173         4.2960     1.6130    -1.9560 hc         1 RAZ       0.053533
     32 H181         6.1790     1.3390    -0.1630 hc         1 RAZ       0.053533
     33 H182         5.1930     2.2100     0.9930 hc         1 RAZ       0.053533
     34 H183         5.7700     0.5860     1.3810 hc         1 RAZ       0.053533
     35 H191         0.7650    -3.1900     0.8630 hx         1 RAZ       0.096700
     36 H192        -0.4690    -2.4690     1.9150 hx         1 RAZ       0.096700
     37 H193        -0.9370    -3.3110     0.4160 hx         1 RAZ       0.096700
     38 H321        -5.8510     1.1810    -0.0960 hc         1 RAZ       0.058367
     39 H322        -4.8640     2.5690     0.3720 hc         1 RAZ       0.058367
     40 H323        -5.0630     2.1790    -1.3240 hc         1 RAZ       0.058367
     41 C10          2.4070    -1.1830    -0.1690 c3         1 RAZ      -0.049200
@<TRIPOS>BOND
     1     1     2 1   
     2     1     3 1   
     3     1     6 1   
     4     1    15 1   
     5     2     4 1   
     6     2    16 1   
     7     2    17 1   
     8     3     5 1   
     9     3    18 1   
    10     3    19 1   
    11     4    13 2   
    12     4    20 1   
    13     5    13 1   
    14     5    21 1   
    15     5    22 1   
    16     6     8 1   
    17     6    12 1   
    18     6    23 1   
    19     7     9 2   
    20     7    24 1   
    21     7    41 1   
    22     8    27 1   
    23     8    28 1   
    24     8    41 1   
    25     9    10 1   
    26     9    11 1   
    27    10    29 1   
    28    10    30 1   
    29    10    31 1   
    30    11    32 1   
    31    11    33 1   
    32    11    34 1   
    33    12    35 1   
    34    12    36 1   
    35    12    37 1   
    36    13    14 1   
    37    14    38 1   
    38    14    39 1   
    39    14    40 1   
    40    25    41 1   
    41    26    41 1   
@<TRIPOS>SUBSTRUCTURE
     1 RAZ         1 TEMP              0 ****  ****    0 ROOT
