@<TRIPOS>MOLECULE
RAZ
   41    41     1     0     0
SMALL
No Charge or Current Charge


@<TRIPOS>ATOM
      1 C01         -1.3320    -0.5180     0.3140 c6         1 RAZ       0.113300
      2 C02         -2.6030    -1.3100    -0.1080 c6         1 RAZ      -0.051200
      3 C03         -1.2680     0.7880    -0.5180 c6         1 RAZ      -0.098400
      4 C05         -3.8460    -0.4360    -0.2190 c2         1 RAZ      -0.244200
      5 C07         -2.5030     1.6820    -0.2500 c6         1 RAZ      -0.047200
      6 N08         -0.0520    -1.3640     0.1430 nx         1 RAZ      -0.667000
      7 C09          3.7330    -0.4740     0.5680 c2         1 RAZ      -0.281200
      8 C11          1.2120    -0.6470     0.6380 c3         1 RAZ       0.090600
      9 C14          4.1980     0.6010    -0.0950 c2         1 RAZ      -0.045400
     10 C17          3.5750     1.1940    -1.3500 c3         1 RAZ      -0.073900
     11 C18          5.4300     1.3640     0.3550 c3         1 RAZ      -0.073900
     12 C19         -0.1640    -2.7660     0.7730 c3         1 RAZ       0.072900
     13 C31         -3.8150     0.9060    -0.2780 c2         1 RAZ      -0.082400
     14 C32         -5.0630     1.7640    -0.3540 c3         1 RAZ      -0.061900
     15 H01         -1.4030    -0.2660     1.3780 hx         1 RAZ       0.102700
     16 H021        -2.4310    -1.8080    -1.0730 hc         1 RAZ       0.064200
     17 H022        -2.7990    -2.1050     0.6240 hc         1 RAZ       0.064200
     18 H031        -0.3670     1.3700    -0.2860 hc         1 RAZ       0.062700
     19 H032        -1.2150     0.5420    -1.5870 hc         1 RAZ       0.062700
     20 H05         -4.8000    -0.9690    -0.2350 ha         1 RAZ       0.204000
     21 H071        -2.4000     2.1770     0.7250 hc         1 RAZ       0.074700
     22 H072        -2.5270     2.4850    -1.0010 hc         1 RAZ       0.074700
     23 H08          0.0710    -1.5100    -0.8850 hn         1 RAZ       0.493000
     24 H09          4.2520    -0.8210     1.4650 ha         1 RAZ       0.190000
     25 H101         2.5000    -1.5030    -0.8750 hc         1 RAZ       0.060700
     26 H102         2.6120    -2.3060     0.6790 hc         1 RAZ       0.060700
     27 H111         1.2210     0.3700     0.2420 hx         1 RAZ       0.098700
     28 H112         1.1770    -0.5810     1.7280 hx         1 RAZ       0.098700
     29 H171         2.6690     0.6680    -1.6660 hc         1 RAZ       0.053533
     30 H172         3.2980     2.2430    -1.1910 hc         1 RAZ       0.053533
     31 H173         4.2800     1.1610    -2.1890 hc         1 RAZ       0.053533
     32 H181         6.2030     1.3580    -0.4230 hc         1 RAZ       0.053533
     33 H182         5.1870     2.4090     0.5790 hc         1 RAZ       0.053533
     34 H183         5.8710     0.9290     1.2590 hc         1 RAZ       0.053533
     35 H191         0.7490    -3.3340     0.5840 hx         1 RAZ       0.096700
     36 H192        -0.3120    -2.6690     1.8510 hx         1 RAZ       0.096700
     37 H193        -1.0100    -3.3050     0.3390 hx         1 RAZ       0.096700
     38 H321        -5.9750     1.1560    -0.3500 hc         1 RAZ       0.058367
     39 H322        -5.1210     2.4510     0.4990 hc         1 RAZ       0.058367
     40 H323        -5.0730     2.3660    -1.2700 hc         1 RAZ       0.058367
     41 C10          2.5280    -1.3210     0.2060 c3         1 RAZ      -0.049200
@<TRIPOS>BOND
     1     1     2 1   
     2     1     3 1   
     3     1     6 1   
     4     1    15 1   
     5     2     4 1   
     6     2    16 1   
     7     2    17 1   
     8     3     5 1   
     9     3    18 1   
    10     3    19 1   
    11     4    13 2   
    12     4    20 1   
    13     5    13 1   
    14     5    21 1   
    15     5    22 1   
    16     6     8 1   
    17     6    12 1   
    18     6    23 1   
    19     7     9 2   
    20     7    24 1   
    21     7    41 1   
    22     8    27 1   
    23     8    28 1   
    24     8    41 1   
    25     9    10 1   
    26     9    11 1   
    27    10    29 1   
    28    10    30 1   
    29    10    31 1   
    30    11    32 1   
    31    11    33 1   
    32    11    34 1   
    33    12    35 1   
    34    12    36 1   
    35    12    37 1   
    36    13    14 1   
    37    14    38 1   
    38    14    39 1   
    39    14    40 1   
    40    25    41 1   
    41    26    41 1   
@<TRIPOS>SUBSTRUCTURE
     1 RAZ         1 TEMP              0 ****  ****    0 ROOT
