@<TRIPOS>MOLECULE
RB0
   22    21     1     0     0
SMALL
bcc


@<TRIPOS>ATOM
      1 C1          -2.5600    -0.7250     0.2420 c3         1 RB0       0.099900
      2 O1          -3.6840    -0.0580     0.7670 oh         1 RB0      -0.597800
      3 C2          -1.3480     0.1890     0.3500 c3         1 RB0       0.123600
      4 O2          -1.5290     1.3910    -0.3600 oh         1 RB0      -0.584300
      5 C3          -0.0740    -0.5650    -0.0480 c3         1 RB0       0.111100
      6 O3          -0.1130    -0.9840    -1.3950 oh         1 RB0      -0.605800
      7 C4           1.2140     0.2160     0.2350 c3         1 RB0       0.123600
      8 O4           1.3980     1.1590    -0.7970 oh         1 RB0      -0.584300
      9 C5           2.3980    -0.7380     0.3130 c3         1 RB0       0.099900
     10 O5           3.5670     0.0350     0.4820 oh         1 RB0      -0.597800
     11 H1          -2.3480    -1.6520     0.7930 h1         1 RB0       0.030950
     12 H1A         -2.7160    -1.0100    -0.8080 h1         1 RB0       0.030950
     13 HO1         -4.4510    -0.6220     0.6360 ho         1 RB0       0.408500
     14 H2          -1.2360     0.4750     1.4020 h1         1 RB0       0.072700
     15 HO2         -1.6310     1.1810    -1.2940 ho         1 RB0       0.416000
     16 H3          -0.0440    -1.4680     0.5750 h1         1 RB0       0.065700
     17 HO3          0.2930    -0.2840    -1.9220 ho         1 RB0       0.426000
     18 H4           1.1140     0.7160     1.2100 h1         1 RB0       0.072700
     19 HO4          2.3340     1.3910    -0.8190 ho         1 RB0       0.416000
     20 H5           2.2420    -1.4280     1.1510 h1         1 RB0       0.030950
     21 H5A          2.4450    -1.3380    -0.6040 h1         1 RB0       0.030950
     22 HO5          4.3280    -0.5050     0.2540 ho         1 RB0       0.408500
@<TRIPOS>BOND
     1     1     2 1   
     2     1     3 1   
     3     1    11 1   
     4     1    12 1   
     5     2    13 1   
     6     3     4 1   
     7     3     5 1   
     8     3    14 1   
     9     4    15 1   
    10     5     6 1   
    11     5     7 1   
    12     5    16 1   
    13     6    17 1   
    14     7     8 1   
    15     7     9 1   
    16     7    18 1   
    17     8    19 1   
    18     9    10 1   
    19     9    20 1   
    20     9    21 1   
    21    10    22 1   
@<TRIPOS>SUBSTRUCTURE
     1 RB0         1 TEMP              0 ****  ****    0 ROOT
