@<TRIPOS>MOLECULE
RB0
   22    21     1     0     0
SMALL
No Charge or Current Charge


@<TRIPOS>ATOM
      1 C1          -2.7240    -0.7160     0.2320 c3         1 RB0       0.123100
      2 O1          -3.8740     0.0080     0.7160 oh         1 RB0      -0.720000
      3 C2          -1.4180     0.1320     0.3500 c3         1 RB0       0.146800
      4 O2          -1.4610     1.2790    -0.5300 oh         1 RB0      -0.706500
      5 C3          -0.1250    -0.7050     0.0630 c3         1 RB0       0.134300
      6 O3          -0.1540    -1.2490    -1.2750 oh         1 RB0      -0.728000
      7 C4           1.1710     0.1480     0.2460 c3         1 RB0       0.146800
      8 O4           1.2300     1.1790    -0.7600 oh         1 RB0      -0.706500
      9 C5           2.4850    -0.6730     0.1570 c3         1 RB0       0.123100
     10 O5           3.6100     0.2270     0.1540 oh         1 RB0      -0.720000
     11 H1          -2.5950    -1.6390     0.8130 h1         1 RB0       0.030950
     12 H1A         -2.8710    -1.0080    -0.8170 h1         1 RB0       0.030950
     13 HO1         -4.6670    -0.5450     0.5210 ho         1 RB0       0.507500
     14 H2          -1.3490     0.4730     1.3930 h1         1 RB0       0.072700
     15 HO2         -0.5020     1.4830    -0.7140 ho         1 RB0       0.515000
     16 H3          -0.0940    -1.5240     0.7960 h1         1 RB0       0.065700
     17 HO3          0.1510    -0.5170    -1.8630 ho         1 RB0       0.525000
     18 H4           1.1390     0.6030     1.2470 h1         1 RB0       0.072700
     19 HO4          2.1990     1.3870    -0.8100 ho         1 RB0       0.515000
     20 H5           2.5380    -1.3570     1.0150 h1         1 RB0       0.030950
     21 H5A          2.4840    -1.2830    -0.7570 h1         1 RB0       0.030950
     22 HO5          4.4270    -0.3270     0.1870 ho         1 RB0       0.507500
@<TRIPOS>BOND
     1     1     2 1   
     2     1     3 1   
     3     1    11 1   
     4     1    12 1   
     5     2    13 1   
     6     3     4 1   
     7     3     5 1   
     8     3    14 1   
     9     4    15 1   
    10     5     6 1   
    11     5     7 1   
    12     5    16 1   
    13     6    17 1   
    14     7     8 1   
    15     7     9 1   
    16     7    18 1   
    17     8    19 1   
    18     9    10 1   
    19     9    20 1   
    20     9    21 1   
    21    10    22 1   
@<TRIPOS>SUBSTRUCTURE
     1 RB0         1 TEMP              0 ****  ****    0 ROOT
