@<TRIPOS>MOLECULE
RB1
   41    43     1     0     0
SMALL
No Charge or Current Charge


@<TRIPOS>ATOM
      1 C20          3.3730     3.0440    -0.7290 c3         1 RB1      -0.100433
      2 C19          3.4410     1.6500    -0.0390 c3         1 RB1       0.135000
      3 C21          4.6380     0.8760    -0.6530 c3         1 RB1      -0.100433
      4 C22          3.6890     1.8840     1.4750 c3         1 RB1      -0.100433
      5 N7           2.1690     0.8800    -0.2430 na         1 RB1      -0.022100
      6 N8           1.0710     1.3680    -0.9680 nc         1 RB1      -0.527100
      7 C3           1.9200    -0.3980     0.2580 ca         1 RB1       0.160500
      8 N2           2.6570    -1.2600     0.9890 nb         1 RB1      -0.235000
      9 C1           2.0640    -2.4410     1.2880 ca         1 RB1       0.192900
     10 N6           0.8170    -2.8320     0.9300 nb         1 RB1      -0.312000
     11 C5           0.1120    -1.9530     0.2060 ca         1 RB1       0.452900
     12 N10         -1.1340    -2.3410    -0.1360 nv         1 RB1      -1.061900
     13 C4           0.6560    -0.7230    -0.1420 ca         1 RB1      -0.385900
     14 C9           0.1570     0.3930    -0.9040 cd         1 RB1       0.384900
     15 C11         -1.1780     0.5520    -1.5920 c3         1 RB1      -0.047400
     16 C12         -2.3810     0.5220    -0.6550 ca         1 RB1      -0.047300
     17 C13         -3.5210    -0.2390    -0.9860 ca         1 RB1      -0.225000
     18 C17         -2.3660     1.2520     0.5500 ca         1 RB1      -0.134000
     19 C16         -3.4700     1.2160     1.4180 ca         1 RB1      -0.071000
     20 C15         -4.6000     0.4510     1.0820 ca         1 RB1      -0.146000
     21 C14         -4.6250    -0.2720    -0.1190 ca         1 RB1       0.139100
     22 O18         -5.7240    -1.0060    -0.4430 oh         1 RB1      -0.532100
     23 H201         3.2180     2.9420    -1.8100 hc         1 RB1       0.049811
     24 H202         2.5520     3.6460    -0.3210 hc         1 RB1       0.049811
     25 H203         4.3040     3.6040    -0.5780 hc         1 RB1       0.049811
     26 H211         5.5650     1.4570    -0.5670 hc         1 RB1       0.049811
     27 H212         4.8030    -0.0820    -0.1480 hc         1 RB1       0.049811
     28 H213         4.4640     0.6730    -1.7170 hc         1 RB1       0.049811
     29 H221         2.8350     2.3990     1.9320 hc         1 RB1       0.049811
     30 H222         3.8400     0.9400     2.0110 hc         1 RB1       0.049811
     31 H223         4.5820     2.5000     1.6350 hc         1 RB1       0.049811
     32 H1           2.6480    -3.1460     1.8770 h5         1 RB1       0.044100
     33 H101        -1.8060    -1.6090    -0.3450 hn         1 RB1       0.497500
     34 H102        -1.5080    -3.1640     0.3290 hn         1 RB1       0.497500
     35 H111        -1.1930     1.4940    -2.1520 hc         1 RB1       0.069200
     36 H112        -1.2680    -0.2350    -2.3500 hc         1 RB1       0.069200
     37 H13         -3.5470    -0.7970    -1.9190 ha         1 RB1       0.112000
     38 H17         -1.4970     1.8500     0.8180 ha         1 RB1       0.128000
     39 H16         -3.4510     1.7800     2.3480 ha         1 RB1       0.118000
     40 H15         -5.4560     0.4230     1.7520 ha         1 RB1       0.131000
     41 H18         -5.5710    -1.4210    -1.3190 ho         1 RB1       0.465000
@<TRIPOS>BOND
     1     1     2 1   
     2     1    23 1   
     3     1    24 1   
     4     1    25 1   
     5     2     3 1   
     6     2     4 1   
     7     2     5 1   
     8     3    26 1   
     9     3    27 1   
    10     3    28 1   
    11     4    29 1   
    12     4    30 1   
    13     4    31 1   
    14     5     6 1   
    15     5     7 1   
    16     6    14 2   
    17     7     8 ar  
    18     7    13 ar  
    19     8     9 ar  
    20     9    10 ar  
    21     9    32 1   
    22    10    11 ar  
    23    11    12 1   
    24    11    13 ar  
    25    12    33 1   
    26    12    34 1   
    27    13    14 1   
    28    14    15 1   
    29    15    16 1   
    30    15    35 1   
    31    15    36 1   
    32    16    17 ar  
    33    16    18 ar  
    34    17    21 ar  
    35    17    37 1   
    36    18    19 ar  
    37    18    38 1   
    38    19    20 ar  
    39    19    39 1   
    40    20    21 ar  
    41    20    40 1   
    42    21    22 1   
    43    22    41 1   
@<TRIPOS>SUBSTRUCTURE
     1 RB1         1 TEMP              0 ****  ****    0 ROOT
