@<TRIPOS>MOLECULE
RB1
   41    43     1     0     0
SMALL
abcg2


@<TRIPOS>ATOM
      1 C20          3.1870     2.9710    -0.7240 c3         1 RB1      -0.100433
      2 C19          3.3860     1.6260    -0.0350 c3         1 RB1       0.135000
      3 C21          4.5610     0.8940    -0.6840 c3         1 RB1      -0.100433
      4 C22          3.6460     1.8530     1.4550 c3         1 RB1      -0.100433
      5 N7           2.1630     0.8140    -0.1920 na         1 RB1      -0.022100
      6 N8           1.1030     1.2770    -0.8780 nc         1 RB1      -0.527100
      7 C3           1.9180    -0.4250     0.2820 ca         1 RB1       0.160500
      8 N2           2.7400    -1.2120     0.9890 nb         1 RB1      -0.235000
      9 C1           2.1950    -2.3730     1.2850 ca         1 RB1       0.192900
     10 N6           0.9750    -2.8190     0.9910 nb         1 RB1      -0.312000
     11 C5           0.1550    -2.0290     0.2940 ca         1 RB1       0.452900
     12 N10         -1.0640    -2.4940     0.0030 nv         1 RB1      -1.061900
     13 C4           0.6210    -0.7610    -0.1170 ca         1 RB1      -0.385900
     14 C9           0.1680     0.3620    -0.8570 cd         1 RB1       0.384900
     15 C11         -1.1290     0.5710    -1.5640 c3         1 RB1      -0.047400
     16 C12         -2.3280     0.5590    -0.6450 ca         1 RB1      -0.047300
     17 C13         -3.4850    -0.1110    -1.0340 ca         1 RB1      -0.225000
     18 C17         -2.3000     1.2200     0.5790 ca         1 RB1      -0.134000
     19 C16         -3.4240     1.2070     1.3930 ca         1 RB1      -0.071000
     20 C15         -4.5780     0.5410     1.0110 ca         1 RB1      -0.146000
     21 C14         -4.6100    -0.1230    -0.2110 ca         1 RB1       0.139100
     22 O18         -5.7450    -0.7650    -0.5510 oh         1 RB1      -0.532100
     23 H201         2.9990     2.8630    -1.7910 hc         1 RB1       0.049811
     24 H202         2.3660     3.5400    -0.2870 hc         1 RB1       0.049811
     25 H203         4.1000     3.5540    -0.6010 hc         1 RB1       0.049811
     26 H211         5.4520     1.5210    -0.6380 hc         1 RB1       0.049811
     27 H212         4.7840    -0.0430    -0.1760 hc         1 RB1       0.049811
     28 H213         4.3540     0.6810    -1.7340 hc         1 RB1       0.049811
     29 H221         2.7940     2.3400     1.9290 hc         1 RB1       0.049811
     30 H222         3.8450     0.9170     1.9750 hc         1 RB1       0.049811
     31 H223         4.5150     2.5000     1.5800 hc         1 RB1       0.049811
     32 H1           2.8160    -3.0610     1.8510 h5         1 RB1       0.044100
     33 H101        -1.7910    -1.8810    -0.3270 hn         1 RB1       0.497500
     34 H102        -1.3600    -3.3600     0.4220 hn         1 RB1       0.497500
     35 H111        -1.0800     1.5280    -2.0900 hc         1 RB1       0.069200
     36 H112        -1.2530    -0.1950    -2.3330 hc         1 RB1       0.069200
     37 H13         -3.5080    -0.6270    -1.9890 ha         1 RB1       0.112000
     38 H17         -1.4060     1.7420     0.8980 ha         1 RB1       0.128000
     39 H16         -3.4040     1.7230     2.3450 ha         1 RB1       0.118000
     40 H15         -5.4490     0.5330     1.6540 ha         1 RB1       0.131000
     41 H18         -5.6510    -1.1810    -1.4160 ho         1 RB1       0.465000
@<TRIPOS>BOND
     1     1     2 1   
     2     1    23 1   
     3     1    24 1   
     4     1    25 1   
     5     2     3 1   
     6     2     4 1   
     7     2     5 1   
     8     3    26 1   
     9     3    27 1   
    10     3    28 1   
    11     4    29 1   
    12     4    30 1   
    13     4    31 1   
    14     5     6 1   
    15     5     7 1   
    16     6    14 2   
    17     7     8 ar  
    18     7    13 ar  
    19     8     9 ar  
    20     9    10 ar  
    21     9    32 1   
    22    10    11 ar  
    23    11    12 1   
    24    11    13 ar  
    25    12    33 1   
    26    12    34 1   
    27    13    14 1   
    28    14    15 1   
    29    15    16 1   
    30    15    35 1   
    31    15    36 1   
    32    16    17 ar  
    33    16    18 ar  
    34    17    21 ar  
    35    17    37 1   
    36    18    19 ar  
    37    18    38 1   
    38    19    20 ar  
    39    19    39 1   
    40    20    21 ar  
    41    20    40 1   
    42    21    22 1   
    43    22    41 1   
@<TRIPOS>SUBSTRUCTURE
     1 RB1         1 TEMP              0 ****  ****    0 ROOT
