@<TRIPOS>MOLECULE
RB2
   37    37     1     0     0
SMALL
abcg2


@<TRIPOS>ATOM
      1 O17          3.8050    -0.2850     1.7340 oh         1 RB2      -0.670000
      2 C15          3.8540    -0.2750     0.3420 c3         1 RB2       0.358300
      3 O16          4.8540    -1.1020    -0.1650 oh         1 RB2      -0.670000
      4 C13          2.5370    -0.7360    -0.3040 c3         1 RB2       0.371500
      5 O14          2.6150    -0.6410    -1.7100 oh         1 RB2      -0.660000
      6 N12          1.4460    -0.0310     0.2980 n7         1 RB2      -0.916400
      7 C6           0.1090    -0.2680    -0.2330 c6         1 RB2       0.205500
      8 C5          -0.9360     0.4320     0.6530 c6         1 RB2      -0.084700
      9 C8          -0.6460     1.9220     0.8730 c3         1 RB2       0.382300
     10 O10         -1.5640     2.5400     1.7260 oh         1 RB2      -0.674000
     11 O9          -0.5730     2.5390    -0.3740 os         1 RB2      -0.492000
     12 C11         -0.0590     3.8540    -0.3500 c3         1 RB2       0.148900
     13 C4          -2.3420     0.1920     0.0930 c6         1 RB2      -0.082400
     14 C3          -2.6290    -1.2950     0.0330 c6         1 RB2       0.149300
     15 CL          -4.2900    -1.5580    -0.6540 cl         1 RB2      -0.299000
     16 C2          -1.6100    -2.0320    -0.8070 c6         1 RB2      -0.083400
     17 C1          -0.2030    -1.7640    -0.2840 c6         1 RB2      -0.084400
     18 H17          3.4190    -1.1160     2.0360 ho         1 RB2       0.459000
     19 H15          4.0370     0.7760     0.0730 h2         1 RB2       0.047700
     20 H16          5.7120    -0.7270     0.0620 ho         1 RB2       0.459000
     21 H13          2.4240    -1.8070    -0.1060 h2         1 RB2       0.099700
     22 H14          2.6990     0.2880    -1.9560 ho         1 RB2       0.436000
     23 H12          1.6480     0.9610     0.3000 hn         1 RB2       0.422000
     24 H6           0.0020     0.1180    -1.2570 h1         1 RB2       0.046700
     25 H5          -0.8770    -0.0270     1.6480 hc         1 RB2       0.074700
     26 H8           0.3090     2.0280     1.4070 h2         1 RB2       0.069700
     27 H10         -2.4490     2.4930     1.3460 ho         1 RB2       0.451000
     28 H111        -0.7420     4.5630     0.1230 h1         1 RB2       0.034033
     29 H112         0.9020     3.9000     0.1750 h1         1 RB2       0.034033
     30 H113         0.0980     4.1620    -1.3820 h1         1 RB2       0.034033
     31 H41         -3.1010     0.6620     0.7220 hc         1 RB2       0.062700
     32 H42         -2.4350     0.6190    -0.9090 hc         1 RB2       0.062700
     33 H3          -2.6700    -1.7130     1.0400 h1         1 RB2       0.072700
     34 H21         -1.8130    -3.1040    -0.8000 hc         1 RB2       0.061200
     35 H22         -1.6880    -1.6940    -1.8440 hc         1 RB2       0.061200
     36 H11         -0.0780    -2.1940     0.7150 hc         1 RB2       0.056200
     37 H12A         0.4980    -2.2820    -0.9410 hc         1 RB2       0.056200
@<TRIPOS>BOND
     1     1     2 1   
     2     1    18 1   
     3     2     3 1   
     4     2     4 1   
     5     2    19 1   
     6     3    20 1   
     7     4     5 1   
     8     4     6 1   
     9     4    21 1   
    10     5    22 1   
    11     6     7 1   
    12     6    23 1   
    13     7     8 1   
    14     7    17 1   
    15     7    24 1   
    16     8     9 1   
    17     8    13 1   
    18     8    25 1   
    19     9    10 1   
    20     9    11 1   
    21     9    26 1   
    22    10    27 1   
    23    11    12 1   
    24    12    28 1   
    25    12    29 1   
    26    12    30 1   
    27    13    14 1   
    28    13    31 1   
    29    13    32 1   
    30    14    15 1   
    31    14    16 1   
    32    14    33 1   
    33    16    17 1   
    34    16    34 1   
    35    16    35 1   
    36    17    36 1   
    37    17    37 1   
@<TRIPOS>SUBSTRUCTURE
     1 RB2         1 TEMP              0 ****  ****    0 ROOT
