@<TRIPOS>MOLECULE
RB2
   37    37     1     0     0
SMALL
No Charge or Current Charge


@<TRIPOS>ATOM
      1 O17          3.8070    -1.2690     1.6360 oh         1 RB2      -0.670000
      2 C15          3.9850    -0.4840     0.4690 c3         1 RB2       0.358300
      3 O16          5.0530    -1.0800    -0.2540 oh         1 RB2      -0.670000
      4 C13          2.6530    -0.4800    -0.3930 c3         1 RB2       0.371500
      5 O14          2.7440     0.4290    -1.4770 oh         1 RB2      -0.660000
      6 N12          1.4980    -0.0490     0.3980 n7         1 RB2      -0.916400
      7 C6           0.1370    -0.2750    -0.1530 c6         1 RB2       0.205500
      8 C5          -0.9430     0.4510     0.7180 c6         1 RB2      -0.084700
      9 C8          -0.6780     1.9880     0.8300 c3         1 RB2       0.382300
     10 O10         -1.5950     2.6160     1.7140 oh         1 RB2      -0.674000
     11 O9          -0.8170     2.5830    -0.4630 os         1 RB2      -0.492000
     12 C11         -0.3460     3.9400    -0.5720 c3         1 RB2       0.148900
     13 C4          -2.3850     0.1360     0.1990 c6         1 RB2      -0.082400
     14 C3          -2.6490    -1.3840     0.1290 c6         1 RB2       0.149300
     15 Cl          -4.3450    -1.7070    -0.5250 cl         1 RB2      -0.299000
     16 C2          -1.5970    -2.0870    -0.7540 c6         1 RB2      -0.083400
     17 C1          -0.1660    -1.8020    -0.2360 c6         1 RB2      -0.084400
     18 H17          2.8310    -1.3920     1.6820 ho         1 RB2       0.459000
     19 H15          4.2510     0.5420     0.7550 h2         1 RB2       0.047700
     20 H16          5.8680    -0.8290     0.2310 ho         1 RB2       0.459000
     21 H13          2.5150    -1.4980    -0.7830 h2         1 RB2       0.099700
     22 H14          3.5670     0.1840    -1.9520 ho         1 RB2       0.436000
     23 H12          1.6300     0.9610     0.4880 hn         1 RB2       0.422000
     24 H6           0.0900     0.1420    -1.1710 h1         1 RB2       0.046700
     25 H5          -0.8600     0.0650     1.7430 hc         1 RB2       0.074700
     26 H8           0.3350     2.1320     1.2260 h2         1 RB2       0.069700
     27 H10         -2.3960     2.7650     1.1720 ho         1 RB2       0.451000
     28 H111        -0.9150     4.6130     0.0830 h1         1 RB2       0.034033
     29 H112         0.7160     4.0070    -0.3020 h1         1 RB2       0.034033
     30 H113        -0.4570     4.2990    -1.6030 h1         1 RB2       0.034033
     31 H41         -3.1380     0.5940     0.8540 hc         1 RB2       0.062700
     32 H42         -2.5300     0.5740    -0.7980 hc         1 RB2       0.062700
     33 H3          -2.6390    -1.8150     1.1410 h1         1 RB2       0.072700
     34 H21         -1.7820    -3.1690    -0.7640 hc         1 RB2       0.061200
     35 H22         -1.6910    -1.7410    -1.7930 hc         1 RB2       0.061200
     36 H11         -0.0360    -2.2600     0.7540 hc         1 RB2       0.056200
     37 H12A         0.5470    -2.3000    -0.9050 hc         1 RB2       0.056200
@<TRIPOS>BOND
     1     1     2 1   
     2     1    18 1   
     3     2     3 1   
     4     2     4 1   
     5     2    19 1   
     6     3    20 1   
     7     4     5 1   
     8     4     6 1   
     9     4    21 1   
    10     5    22 1   
    11     6     7 1   
    12     6    23 1   
    13     7     8 1   
    14     7    17 1   
    15     7    24 1   
    16     8     9 1   
    17     8    13 1   
    18     8    25 1   
    19     9    10 1   
    20     9    11 1   
    21     9    26 1   
    22    10    27 1   
    23    11    12 1   
    24    12    28 1   
    25    12    29 1   
    26    12    30 1   
    27    13    14 1   
    28    13    31 1   
    29    13    32 1   
    30    14    15 1   
    31    14    16 1   
    32    14    33 1   
    33    16    17 1   
    34    16    34 1   
    35    16    35 1   
    36    17    36 1   
    37    17    37 1   
@<TRIPOS>SUBSTRUCTURE
     1 RB2         1 TEMP              0 ****  ****    0 ROOT
