@<TRIPOS>MOLECULE
RB3
   42    41     1     0     0
SMALL
No Charge or Current Charge


@<TRIPOS>ATOM
      1 O1M         -0.3010     0.5210    -6.1060 os         1 RB3      -0.452100
      2 C1A         -1.2580     0.1930    -5.1820 c          1 RB3       0.590100
      3 O1A         -2.4070    -0.1170    -5.4590 o          1 RB3      -0.469000
      4 C2A         -0.6980     0.1700    -3.7640 c3         1 RB3      -0.168400
      5 C3A         -0.8620     1.5240    -3.0240 c3         1 RB3       0.194300
      6 C4A         -0.0080     2.6570    -3.6270 c3         1 RB3      -0.097100
      7 O3A         -2.2290     1.9760    -3.0840 os         1 RB3      -0.428100
      8 C1B         -3.1940     1.3340    -2.3480 c          1 RB3       0.605100
      9 O1B         -2.9850     0.3900    -1.5990 o          1 RB3      -0.502000
     10 C2B         -4.5430     2.0400    -2.4390 c3         1 RB3      -0.142400
     11 C3B         -5.4810     1.3180    -3.4240 c3         1 RB3       0.191300
     12 C4B         -6.9400     1.8140    -3.3080 c3         1 RB3      -0.117100
     13 O3B         -5.0100     1.6260    -4.7480 os         1 RB3      -0.447100
     14 C1C         -5.3980     0.8360    -5.8010 c          1 RB3       0.613100
     15 O1C         -6.0940    -0.1660    -5.7030 o          1 RB3      -0.492000
     16 C2C         -4.8500     1.3670    -7.1230 c3         1 RB3      -0.176400
     17 C3C         -5.8030     2.4070    -7.7430 c3         1 RB3       0.175300
     18 C4C         -5.1810     3.1170    -8.9610 c3         1 RB3      -0.131100
     19 O3C         -7.0100     1.7640    -8.1600 oh         1 RB3      -0.648000
     20 C1          -0.6880     0.5680    -7.4920 c3         1 RB3       0.150900
     21 H2A1         0.3790    -0.0240    -3.8160 hc         1 RB3       0.086200
     22 H2A2        -1.1900    -0.6250    -3.1950 hc         1 RB3       0.086200
     23 H3A         -0.5470     1.3930    -1.9780 h1         1 RB3       0.063700
     24 H4A1        -0.3170     2.8830    -4.6540 hc         1 RB3       0.052367
     25 H4A2         1.0520     2.3800    -3.6370 hc         1 RB3       0.052367
     26 H4A3        -0.1130     3.5710    -3.0300 hc         1 RB3       0.052367
     27 H2B1        -4.4010     3.0650    -2.8010 hc         1 RB3       0.085200
     28 H2B2        -5.0010     2.0420    -1.4440 hc         1 RB3       0.085200
     29 H3B         -5.4450     0.2370    -3.2230 h1         1 RB3       0.077700
     30 H4B1        -7.0060     2.8850    -3.5390 hc         1 RB3       0.052367
     31 H4B2        -7.3180     1.6590    -2.2910 hc         1 RB3       0.052367
     32 H4B3        -7.6000     1.2720    -3.9940 hc         1 RB3       0.052367
     33 H2C1        -4.6860     0.5380    -7.8200 hc         1 RB3       0.074700
     34 H2C2        -3.9110     1.8920    -6.9160 hc         1 RB3       0.074700
     35 H1          -6.0240     3.1710    -6.9820 h1         1 RB3       0.095700
     36 H4C1        -4.9170     2.3980    -9.7470 hc         1 RB3       0.042700
     37 H4C2        -4.2710     3.6540    -8.6690 hc         1 RB3       0.042700
     38 H4C3        -5.8830     3.8470    -9.3820 hc         1 RB3       0.042700
     39 H3C         -6.7900     1.2190    -8.9460 ho         1 RB3       0.437000
     40 H11          0.1690     0.8420    -8.1190 h1         1 RB3       0.048033
     41 H12         -1.4790     1.3120    -7.6530 h1         1 RB3       0.048033
     42 H13         -1.0570    -0.4100    -7.8290 h1         1 RB3       0.048033
@<TRIPOS>BOND
     1     1     2 1   
     2     1    20 1   
     3     2     3 2   
     4     2     4 1   
     5     4     5 1   
     6     4    21 1   
     7     4    22 1   
     8     5     6 1   
     9     5     7 1   
    10     5    23 1   
    11     6    24 1   
    12     6    25 1   
    13     6    26 1   
    14     7     8 1   
    15     8     9 2   
    16     8    10 1   
    17    10    11 1   
    18    10    27 1   
    19    10    28 1   
    20    11    12 1   
    21    11    13 1   
    22    11    29 1   
    23    12    30 1   
    24    12    31 1   
    25    12    32 1   
    26    13    14 1   
    27    14    15 2   
    28    14    16 1   
    29    16    17 1   
    30    16    33 1   
    31    16    34 1   
    32    17    18 1   
    33    17    19 1   
    34    17    35 1   
    35    18    36 1   
    36    18    37 1   
    37    18    38 1   
    38    19    39 1   
    39    20    40 1   
    40    20    41 1   
    41    20    42 1   
@<TRIPOS>SUBSTRUCTURE
     1 RB3         1 TEMP              0 ****  ****    0 ROOT
