@<TRIPOS>MOLECULE
RB3
   42    41     1     0     0
SMALL
abcg2


@<TRIPOS>ATOM
      1 O1M         -0.5850     1.0610    -6.8170 os         1 RB3      -0.452100
      2 C1A         -1.0390     1.5940    -5.6890 c          1 RB3       0.590100
      3 O1A         -1.4650     2.7180    -5.6140 o          1 RB3      -0.469000
      4 C2A         -0.9760     0.5940    -4.5630 c3         1 RB3      -0.168400
      5 C3A         -1.0810     1.1710    -3.1570 c3         1 RB3       0.194300
      6 C4A          0.0430     2.1250    -2.8050 c3         1 RB3      -0.097100
      7 O3A         -2.3150     1.8840    -2.9740 os         1 RB3      -0.428100
      8 C1B         -3.4310     1.2020    -2.7720 c          1 RB3       0.605100
      9 O1B         -3.4890    -0.0010    -2.7100 o          1 RB3      -0.502000
     10 C2B         -4.6230     2.1110    -2.6130 c3         1 RB3      -0.142400
     11 C3B         -5.8430     1.5590    -3.3290 c3         1 RB3       0.191300
     12 C4B         -7.0110     2.5230    -3.2660 c3         1 RB3      -0.117100
     13 O3B         -5.4120     1.3590    -4.6870 os         1 RB3      -0.447100
     14 C1C         -6.0670     0.5140    -5.4700 c          1 RB3       0.613100
     15 O1C         -7.0460    -0.1000    -5.1240 o          1 RB3      -0.492000
     16 C2C         -5.4150     0.3830    -6.8200 c3         1 RB3      -0.176400
     17 C3C         -4.9960     1.7140    -7.4470 c3         1 RB3       0.175300
     18 C4C         -4.4520     1.4930    -8.8500 c3         1 RB3      -0.131100
     19 O3C         -6.0640     2.6370    -7.4310 oh         1 RB3      -0.648000
     20 C1          -0.5960     1.8830    -7.9840 c3         1 RB3       0.150900
     21 H2A1        -0.0420     0.0310    -4.6300 hc         1 RB3       0.086200
     22 H2A2        -1.7660    -0.1460    -4.7280 hc         1 RB3       0.086200
     23 H3A         -1.0530     0.3290    -2.4620 h1         1 RB3       0.063700
     24 H4A1         0.0740     2.9940    -3.4610 hc         1 RB3       0.052367
     25 H4A2         0.9960     1.6030    -2.8870 hc         1 RB3       0.052367
     26 H4A3        -0.0540     2.4740    -1.7770 hc         1 RB3       0.052367
     27 H2B1        -4.3930     3.1180    -2.9650 hc         1 RB3       0.085200
     28 H2B2        -4.8490     2.1900    -1.5450 hc         1 RB3       0.085200
     29 H3B         -6.1220     0.5970    -2.8940 h1         1 RB3       0.077700
     30 H4B1        -6.7490     3.4810    -3.7170 hc         1 RB3       0.052367
     31 H4B2        -7.2830     2.7030    -2.2260 hc         1 RB3       0.052367
     32 H4B3        -7.8890     2.1270    -3.7720 hc         1 RB3       0.052367
     33 H2C1        -6.1050    -0.1470    -7.4810 hc         1 RB3       0.074700
     34 H2C2        -4.5370    -0.2630    -6.7090 hc         1 RB3       0.074700
     35 H1          -4.2120     2.1640    -6.8320 h1         1 RB3       0.095700
     36 H4C1        -5.2140     1.0590    -9.5020 hc         1 RB3       0.042700
     37 H4C2        -3.6020     0.8100    -8.8390 hc         1 RB3       0.042700
     38 H4C3        -4.1210     2.4330    -9.2910 hc         1 RB3       0.042700
     39 H3C         -6.7470     2.3220    -8.0340 ho         1 RB3       0.437000
     40 H11         -0.2120     1.2640    -8.7900 h1         1 RB3       0.048033
     41 H12          0.0470     2.7550    -7.8610 h1         1 RB3       0.048033
     42 H13         -1.6030     2.2160    -8.2340 h1         1 RB3       0.048033
@<TRIPOS>BOND
     1     1     2 1   
     2     1    20 1   
     3     2     3 2   
     4     2     4 1   
     5     4     5 1   
     6     4    21 1   
     7     4    22 1   
     8     5     6 1   
     9     5     7 1   
    10     5    23 1   
    11     6    24 1   
    12     6    25 1   
    13     6    26 1   
    14     7     8 1   
    15     8     9 2   
    16     8    10 1   
    17    10    11 1   
    18    10    27 1   
    19    10    28 1   
    20    11    12 1   
    21    11    13 1   
    22    11    29 1   
    23    12    30 1   
    24    12    31 1   
    25    12    32 1   
    26    13    14 1   
    27    14    15 2   
    28    14    16 1   
    29    16    17 1   
    30    16    33 1   
    31    16    34 1   
    32    17    18 1   
    33    17    19 1   
    34    17    35 1   
    35    18    36 1   
    36    18    37 1   
    37    18    38 1   
    38    19    39 1   
    39    20    40 1   
    40    20    41 1   
    41    20    42 1   
@<TRIPOS>SUBSTRUCTURE
     1 RB3         1 TEMP              0 ****  ****    0 ROOT
