@<TRIPOS>MOLECULE
RB4
   57    60     1     0     0
SMALL
bcc


@<TRIPOS>ATOM
      1 C1           3.1990     0.0080    -0.1020 cc         1 RB4      -0.247600
      2 N1           0.7660     0.2650    -0.1690 ns         1 RB4      -0.454100
      3 O1           2.1190    -2.0970    -0.0050 o          1 RB4      -0.600000
      4 S1           2.3710     2.4490    -0.2390 ss         1 RB4       0.030200
      5 C2           3.1450    -1.4550    -0.1450 c          1 RB4       0.695700
      6 N2          -2.7890     1.0620    -0.4470 n7         1 RB4      -0.799200
      7 O2           4.3170    -2.0020    -0.3770 os         1 RB4      -0.397900
      8 C3           4.4290    -3.4320    -0.4060 c3         1 RB4       0.145400
      9 N3          -8.3660    -0.5020    -1.5200 na         1 RB4      -0.175400
     10 O3          -0.3130     2.2350    -0.3240 o          1 RB4      -0.561100
     11 C4           5.8710    -3.7620    -0.7050 c3         1 RB4      -0.097100
     12 C5           4.3780     0.8330    -0.1030 cc         1 RB4       0.019000
     13 C6           5.7770     0.3790     0.0330 ca         1 RB4      -0.009000
     14 C7           4.0660     2.1510    -0.1810 cd         1 RB4      -0.173100
     15 C8           2.0410     0.7630    -0.1540 cd         1 RB4       0.137500
     16 C9          -0.3610     1.0240    -0.2530 c          1 RB4       0.665100
     17 C10         -1.6430     0.2240    -0.2210 c3         1 RB4       0.092800
     18 C11         -4.0350     0.3220    -0.4600 c3         1 RB4       0.161800
     19 C12         -5.2050     1.2500    -0.7740 c3         1 RB4      -0.001200
     20 C13         -6.5170     0.5400    -0.7970 cc         1 RB4      -0.143400
     21 C14          6.2000    -0.2850     1.1830 ca         1 RB4      -0.106500
     22 C15          7.5230    -0.6640     1.3310 ca         1 RB4      -0.133500
     23 C16          8.4450    -0.3880     0.3280 ca         1 RB4      -0.128000
     24 C17          8.0340     0.2770    -0.8170 ca         1 RB4      -0.133500
     25 C18          6.7070     0.6600    -0.9620 ca         1 RB4      -0.106500
     26 C19         -7.2800     0.1040     0.3370 ca         1 RB4      -0.096800
     27 C20         -8.4340    -0.5420    -0.1580 ca         1 RB4      -0.045200
     28 C21         -7.2220     0.1460    -1.8970 cd         1 RB4      -0.102100
     29 C22         -7.1010     0.2100     1.7200 ca         1 RB4      -0.080000
     30 C23         -8.0590    -0.3190     2.5620 ca         1 RB4      -0.159000
     31 C24         -9.1990    -0.9580     2.0490 ca         1 RB4      -0.110000
     32 C25         -9.4030    -1.0790     0.6880 ca         1 RB4      -0.146000
     33 HN1          0.7050    -0.7470    -0.0920 hn         1 RB4       0.367500
     34 HN2         -2.8310     1.7760     0.2690 hn         1 RB4       0.369800
     35 H3           4.1220    -3.8440     0.5570 h1         1 RB4       0.046700
     36 H3A          3.7650    -3.8390    -1.1720 h1         1 RB4       0.046700
     37 H4           6.1730    -3.3790    -1.6790 hc         1 RB4       0.048033
     38 H4A          6.5380    -3.3470     0.0500 hc         1 RB4       0.048033
     39 H4B          5.9970    -4.8440    -0.7140 hc         1 RB4       0.048033
     40 H7           4.7540     2.9820    -0.1690 h4         1 RB4       0.173000
     41 H10         -1.6680    -0.3320     0.7310 h1         1 RB4       0.054700
     42 H10A        -1.5940    -0.5380    -1.0060 h1         1 RB4       0.054700
     43 H11         -3.9750    -0.4460    -1.2360 h1         1 RB4       0.033700
     44 H11A        -4.2270    -0.2130     0.4830 h1         1 RB4       0.033700
     45 H12         -5.2340     2.0560    -0.0320 hc         1 RB4       0.052700
     46 H12A        -5.0210     1.7310    -1.7370 hc         1 RB4       0.052700
     47 H14          5.4890    -0.4950     1.9730 ha         1 RB4       0.133000
     48 H15          7.8400    -1.1730     2.2320 ha         1 RB4       0.129000
     49 H16          9.4780    -0.6880     0.4430 ha         1 RB4       0.128000
     50 H17          8.7450     0.4980    -1.6020 ha         1 RB4       0.129000
     51 H18          6.3880     1.1730    -1.8610 ha         1 RB4       0.133000
     52 H21         -6.9930     0.2820    -2.9420 h4         1 RB4       0.163000
     53 H22         -6.2270     0.7020     2.1280 ha         1 RB4       0.129000
     54 H23         -7.9340    -0.2420     3.6340 ha         1 RB4       0.128000
     55 H24         -9.9340    -1.3630     2.7320 ha         1 RB4       0.128000
     56 H25        -10.2850    -1.5700     0.2990 ha         1 RB4       0.130000
     57 HN3         -9.0530    -0.8620    -2.1570 hn         1 RB4       0.298700
@<TRIPOS>BOND
     1     1     5 1   
     2     1    12 1   
     3     1    15 2   
     4     2    15 1   
     5     2    16 1   
     6     2    33 1   
     7     3     5 2   
     8     4    14 1   
     9     4    15 1   
    10     5     7 1   
    11     6    17 1   
    12     6    18 1   
    13     6    34 1   
    14     7     8 1   
    15     8    11 1   
    16     8    35 1   
    17     8    36 1   
    18     9    27 1   
    19     9    28 1   
    20     9    57 1   
    21    10    16 2   
    22    11    37 1   
    23    11    38 1   
    24    11    39 1   
    25    12    13 1   
    26    12    14 2   
    27    13    21 ar  
    28    13    25 ar  
    29    14    40 1   
    30    16    17 1   
    31    17    41 1   
    32    17    42 1   
    33    18    19 1   
    34    18    43 1   
    35    18    44 1   
    36    19    20 1   
    37    19    45 1   
    38    19    46 1   
    39    20    26 1   
    40    20    28 2   
    41    21    22 ar  
    42    21    47 1   
    43    22    23 ar  
    44    22    48 1   
    45    23    24 ar  
    46    23    49 1   
    47    24    25 ar  
    48    24    50 1   
    49    25    51 1   
    50    26    27 ar  
    51    26    29 ar  
    52    27    32 ar  
    53    28    52 1   
    54    29    30 ar  
    55    29    53 1   
    56    30    31 ar  
    57    30    54 1   
    58    31    32 ar  
    59    31    55 1   
    60    32    56 1   
@<TRIPOS>SUBSTRUCTURE
     1 RB4         1 TEMP              0 ****  ****    0 ROOT
