@<TRIPOS>MOLECULE
RB4
   57    60     1     0     0
SMALL
No Charge or Current Charge


@<TRIPOS>ATOM
      1 C1           3.2650     0.1540    -0.0950 cc         1 RB4      -0.247600
      2 N1           0.8650     0.5550    -0.0010 ns         1 RB4      -0.387100
      3 O1           2.0480    -1.9130    -0.0080 o          1 RB4      -0.551000
      4 S1           2.6630     2.7200    -0.1210 ss         1 RB4       0.320000
      5 C2           3.1190    -1.3350    -0.1630 c          1 RB4       0.646700
      6 N2          -2.8330     1.0240    -0.5160 n7         1 RB4      -0.854400
      7 O2           4.2430    -1.9980    -0.5730 os         1 RB4      -0.421100
      8 C3           4.1870    -3.4250    -0.7210 c3         1 RB4       0.168600
      9 N3          -8.3940    -1.0900    -1.4390 na         1 RB4      -0.225700
     10 O3          -0.3540     2.5020     0.0200 o          1 RB4      -0.561100
     11 C4           5.5880    -3.8950    -1.1440 c3         1 RB4      -0.097100
     12 C5           4.5140     0.8680    -0.1470 cc         1 RB4       0.019000
     13 C6           5.8960     0.3940     0.0650 ca         1 RB4      -0.009000
     14 C7           4.3590     2.2350    -0.1490 cd         1 RB4      -0.300000
     15 C8           2.1780     1.0100    -0.0490 cd         1 RB4      -0.007400
     16 C9          -0.3180     1.2760     0.0300 c          1 RB4       0.598100
     17 C10         -1.6100     0.3980     0.0870 c3         1 RB4       0.092800
     18 C11         -4.0780     0.2420    -0.3740 c3         1 RB4       0.161800
     19 C12         -5.2590     0.9560    -1.0650 c3         1 RB4      -0.001200
     20 C13         -6.5530     0.1920    -0.9510 cc         1 RB4      -0.143400
     21 C14          6.1810    -0.6550     0.9680 ca         1 RB4      -0.088500
     22 C15          7.5030    -1.0820     1.1840 ca         1 RB4      -0.115500
     23 C16          8.5630    -0.4550     0.5120 ca         1 RB4      -0.110000
     24 C17          8.3000     0.6060    -0.3670 ca         1 RB4      -0.115500
     25 C18          6.9780     1.0330    -0.5820 ca         1 RB4      -0.088500
     26 C19         -7.3440     0.0120     0.2340 ca         1 RB4      -0.096800
     27 C20         -8.4250    -0.7550    -0.0980 ca         1 RB4      -0.045200
     28 C21         -7.2220    -0.4920    -1.9630 cd         1 RB4      -0.152100
     29 C22         -7.1490     0.4910     1.5390 ca         1 RB4      -0.062000
     30 C23         -8.1070     0.1510     2.5170 ca         1 RB4      -0.141000
     31 C24         -9.2250    -0.6460     2.1760 ca         1 RB4      -0.092000
     32 C25         -9.3930    -1.1070     0.8530 ca         1 RB4      -0.128000
     33 HN1          0.7300    -0.4530     0.0180 hn         1 RB4       0.367500
     34 HN2         -2.9730     1.9450    -0.0760 hn         1 RB4       0.425000
     35 H3           3.9100    -3.9070     0.2260 h1         1 RB4       0.046700
     36 H3A          3.4550    -3.7120    -1.4880 h1         1 RB4       0.046700
     37 H4           5.8800    -3.4330    -2.0940 hc         1 RB4       0.048033
     38 H4A          6.3300    -3.6290    -0.3820 hc         1 RB4       0.048033
     39 H4B          5.6000    -4.9840    -1.2720 hc         1 RB4       0.048033
     40 H7           5.1230     3.0000    -0.1020 h4         1 RB4       0.155000
     41 H10         -1.7780     0.1600     1.1460 h1         1 RB4       0.054700
     42 H10A        -1.3890    -0.5510    -0.4220 h1         1 RB4       0.054700
     43 H11         -3.9560    -0.7530    -0.8250 h1         1 RB4       0.033700
     44 H11A        -4.3180     0.0960     0.6880 h1         1 RB4       0.033700
     45 H12         -5.3850     1.9530    -0.6250 hc         1 RB4       0.052700
     46 H12A        -5.0130     1.1100    -2.1230 hc         1 RB4       0.052700
     47 H14          5.3780    -1.1280     1.5260 ha         1 RB4       0.115000
     48 H15          7.7040    -1.8930     1.8800 ha         1 RB4       0.111000
     49 H16          9.5870    -0.7850     0.6800 ha         1 RB4       0.110000
     50 H17          9.1200     1.0990    -0.8850 ha         1 RB4       0.111000
     51 H18          6.7950     1.8490    -1.2760 ha         1 RB4       0.115000
     52 H21         -6.9460    -0.6000    -3.0090 h4         1 RB4       0.213000
     53 H22         -6.2880     1.1050     1.7900 ha         1 RB4       0.111000
     54 H23         -7.9850     0.5050     3.5380 ha         1 RB4       0.110000
     55 H24         -9.9600    -0.9020     2.9360 ha         1 RB4       0.110000
     56 H25        -10.2510    -1.7180     0.5810 ha         1 RB4       0.112000
     57 HN3         -9.0750    -1.6510    -1.9440 hn         1 RB4       0.349000
@<TRIPOS>BOND
     1     1     5 1   
     2     1    12 1   
     3     1    15 2   
     4     2    15 1   
     5     2    16 1   
     6     2    33 1   
     7     3     5 2   
     8     4    14 1   
     9     4    15 1   
    10     5     7 1   
    11     6    17 1   
    12     6    18 1   
    13     6    34 1   
    14     7     8 1   
    15     8    11 1   
    16     8    35 1   
    17     8    36 1   
    18     9    27 1   
    19     9    28 1   
    20     9    57 1   
    21    10    16 2   
    22    11    37 1   
    23    11    38 1   
    24    11    39 1   
    25    12    13 1   
    26    12    14 2   
    27    13    21 ar  
    28    13    25 ar  
    29    14    40 1   
    30    16    17 1   
    31    17    41 1   
    32    17    42 1   
    33    18    19 1   
    34    18    43 1   
    35    18    44 1   
    36    19    20 1   
    37    19    45 1   
    38    19    46 1   
    39    20    26 1   
    40    20    28 2   
    41    21    22 ar  
    42    21    47 1   
    43    22    23 ar  
    44    22    48 1   
    45    23    24 ar  
    46    23    49 1   
    47    24    25 ar  
    48    24    50 1   
    49    25    51 1   
    50    26    27 ar  
    51    26    29 ar  
    52    27    32 ar  
    53    28    52 1   
    54    29    30 ar  
    55    29    53 1   
    56    30    31 ar  
    57    30    54 1   
    58    31    32 ar  
    59    31    55 1   
    60    32    56 1   
@<TRIPOS>SUBSTRUCTURE
     1 RB4         1 TEMP              0 ****  ****    0 ROOT
