@<TRIPOS>MOLECULE
RB5
   20    19     1     0     0
SMALL
abcg2


@<TRIPOS>ATOM
      1 C1          -2.4350     0.4610    -0.5190 c3         1 RB5       0.130600
      2 O1          -3.6590     0.1350     0.0950 oh         1 RB5      -0.706000
      3 C2          -1.2950    -0.0600     0.3420 c3         1 RB5       0.147300
      4 O2          -1.3270    -1.4580     0.4710 oh         1 RB5      -0.687000
      5 C3           0.0470     0.4760    -0.1890 c3         1 RB5       0.104300
      6 O3           0.1630     1.8580     0.0610 oh         1 RB5      -0.712000
      7 C4           1.2640    -0.3180     0.3440 c3         1 RB5       0.024300
      8 O4           1.4050    -1.5440    -0.3130 oh         1 RB5      -0.698000
      9 C5           2.5090     0.5310     0.1920 c          1 RB5       0.551900
     10 O5           3.3560     0.2810    -0.6280 o          1 RB5      -0.509100
     11 H1          -2.3490     0.0120    -1.5210 h1         1 RB5       0.026200
     12 H1A         -2.3200     1.5440    -0.6470 h1         1 RB5       0.026200
     13 HO1         -4.3680     0.4710    -0.4580 ho         1 RB5       0.504000
     14 H2          -1.4220     0.3240     1.3630 h1         1 RB5       0.077700
     15 HO2         -1.0810    -1.8580    -0.3700 ho         1 RB5       0.510000
     16 H3           0.0740     0.3760    -1.2810 h1         1 RB5       0.078700
     17 HO3          0.0330     2.0230     1.0020 ho         1 RB5       0.507000
     18 H4           1.1400    -0.5100     1.4180 h1         1 RB5       0.095700
     19 HO4          1.9550    -1.4030    -1.0940 ho         1 RB5       0.521000
     20 H5           2.6080     1.3830     0.8790 h4         1 RB5       0.007200
@<TRIPOS>BOND
     1     1     2 1   
     2     1     3 1   
     3     1    11 1   
     4     1    12 1   
     5     2    13 1   
     6     3     4 1   
     7     3     5 1   
     8     3    14 1   
     9     4    15 1   
    10     5     6 1   
    11     5     7 1   
    12     5    16 1   
    13     6    17 1   
    14     7     8 1   
    15     7     9 1   
    16     7    18 1   
    17     8    19 1   
    18     9    10 2   
    19     9    20 1   
@<TRIPOS>SUBSTRUCTURE
     1 RB5         1 TEMP              0 ****  ****    0 ROOT
