@<TRIPOS>MOLECULE
RB5
   20    19     1     0     0
SMALL
No Charge or Current Charge


@<TRIPOS>ATOM
      1 C1          -2.5850     0.6050    -0.4070 c3         1 RB5       0.130600
      2 O1          -3.8220     0.0780     0.1130 oh         1 RB5      -0.706000
      3 C2          -1.3450    -0.1360     0.1910 c3         1 RB5       0.147300
      4 O2          -1.3550    -1.5190    -0.2130 oh         1 RB5      -0.687000
      5 C3           0.0190     0.5130    -0.2390 c3         1 RB5       0.104300
      6 O3           0.0750     1.8900     0.1880 oh         1 RB5      -0.712000
      7 C4           1.2830    -0.2390     0.2940 c3         1 RB5       0.024300
      8 O4           1.2820    -1.6300    -0.1550 oh         1 RB5      -0.698000
      9 C5           2.5910     0.5020    -0.1140 c          1 RB5       0.551900
     10 O5           3.5070    -0.0470    -0.7220 o          1 RB5      -0.509100
     11 H1          -2.5610     0.5140    -1.5020 h1         1 RB5       0.026200
     12 H1A         -2.5160     1.6750    -0.1690 h1         1 RB5       0.026200
     13 HO1         -4.5540     0.5270    -0.3730 ho         1 RB5       0.504000
     14 H2          -1.4140    -0.0750     1.2870 h1         1 RB5       0.077700
     15 HO2         -0.3880    -1.7740    -0.2190 ho         1 RB5       0.510000
     16 H3           0.0620     0.4800    -1.3380 h1         1 RB5       0.078700
     17 HO3         -0.1920     1.9370     1.1370 ho         1 RB5       0.507000
     18 H4           1.2590    -0.2030     1.3920 h1         1 RB5       0.095700
     19 HO4          2.2240    -1.8830    -0.3330 ho         1 RB5       0.521000
     20 H5           2.7300     1.5120     0.3300 h4         1 RB5       0.007200
@<TRIPOS>BOND
     1     1     2 1   
     2     1     3 1   
     3     1    11 1   
     4     1    12 1   
     5     2    13 1   
     6     3     4 1   
     7     3     5 1   
     8     3    14 1   
     9     4    15 1   
    10     5     6 1   
    11     5     7 1   
    12     5    16 1   
    13     6    17 1   
    14     7     8 1   
    15     7     9 1   
    16     7    18 1   
    17     8    19 1   
    18     9    10 2   
    19     9    20 1   
@<TRIPOS>SUBSTRUCTURE
     1 RB5         1 TEMP              0 ****  ****    0 ROOT
