@<TRIPOS>MOLECULE
RB6
   59    62     1     0     0
SMALL
abcg2


@<TRIPOS>ATOM
      1 OAX          3.8880    -2.6820     1.1190 o          1 RB6      -0.578100
      2 CAW          3.6360    -1.4970     0.9940 c          1 RB6       0.512800
      3 CAY          4.5260    -0.4450     1.6160 ce         1 RB6       0.279300
      4 CBB          4.8010     0.8390     0.9370 cc         1 RB6       0.609700
      5 NBF          3.9720     1.2930     0.0410 nd         1 RB6      -0.533100
      6 SBE          4.5300     2.7660    -0.4900 ss         1 RB6       0.016700
      7 CBD          5.9040     2.6680     0.5760 cd         1 RB6       0.696300
      8 NBG          6.8360     3.6080     0.6610 nv         1 RB6      -1.071900
      9 NBC          5.8950     1.5590     1.2720 nc         1 RB6      -0.744000
     10 NAZ          5.1090    -0.5720     2.7430 n2         1 RB6      -0.274700
     11 OBA          4.8560    -1.6950     3.4200 oh         1 RB6      -0.461000
     12 N            2.5570    -1.0280     0.3470 ns         1 RB6      -0.470900
     13 CA           1.6770    -1.9160    -0.3550 c3         1 RB6      -0.014300
     14 C            2.2820    -2.4530    -1.6420 c          1 RB6       0.577900
     15 O            3.4020    -2.2090    -2.0040 o          1 RB6      -0.526100
     16 CB           0.3440    -1.2200    -0.6460 c6         1 RB6       0.366500
     17 SAS          0.6120     0.0470    -1.9280 ss         1 RB6      -0.501000
     18 CAR         -1.1090     0.6050    -1.9610 c6         1 RB6       0.142800
     19 NAC         -0.6040    -2.1740    -1.1200 nu         1 RB6      -0.798200
     20 CAD         -1.8390    -1.7680    -1.6180 ce         1 RB6       0.079800
     21 CBH         -2.8170    -2.9510    -1.6360 c          1 RB6       0.724200
     22 OBI         -3.6680    -3.0130    -2.5370 o          1 RB6      -0.703500
     23 OBJ         -2.6310    -3.7870    -0.7270 o          1 RB6      -0.703500
     24 CAE         -2.1110    -0.5160    -2.0290 c2         1 RB6      -0.260400
     25 CAF         -3.4540    -0.0630    -2.5470 c3         1 RB6       0.042000
     26 CAG         -4.0620     0.9570    -1.6440 ce         1 RB6      -0.109400
     27 CAH         -4.6080     0.5940    -0.3090 c          1 RB6       0.545200
     28 OAI         -4.6480    -0.5240     0.1870 o          1 RB6      -0.511000
     29 CAQ         -4.2120     2.2720    -1.8090 c2         1 RB6      -0.270200
     30 CAP         -4.8560     2.8750    -0.6090 c5         1 RB6       0.129200
     31 NAJ         -5.0690     1.7370     0.2490 n          1 RB6      -0.428800
     32 CAK         -5.6280     1.8680     1.5780 c5         1 RB6       0.098700
     33 CAL         -4.6100     1.6260     2.7150 c5         1 RB6      -0.137400
     34 CAM         -5.3600     0.7100     3.6910 c5         1 RB6       0.137800
     35 NAN         -6.2780    -0.0800     2.8800 n7         1 RB6      -0.824400
     36 CAO         -6.7780     0.8760     1.9040 c5         1 RB6       0.129800
     37 H1           6.8240     4.4330     0.0880 hn         1 RB6       0.503000
     38 H2           7.6330     3.4630     1.2590 hn         1 RB6       0.503000
     39 H3           5.3470    -1.5890     4.2440 ho         1 RB6       0.467000
     40 H4           2.5510    -0.0400     0.1030 hn         1 RB6       0.358500
     41 H5           1.4520    -2.7850     0.2760 h1         1 RB6       0.098700
     42 H6           1.6090    -3.1070    -2.2190 h4         1 RB6       0.028200
     43 H7           0.0120    -0.7040     0.2650 h2         1 RB6       0.052700
     44 H8          -1.2800     1.2580    -1.1020 h1         1 RB6       0.047700
     45 H9          -1.1970     1.2400    -2.8470 h1         1 RB6       0.047700
     46 H10         -0.7200    -2.9810    -0.5170 hn         1 RB6       0.501000
     47 H12         -3.3350     0.3750    -3.5440 hc         1 RB6       0.076700
     48 H13         -4.1230    -0.9130    -2.6450 hc         1 RB6       0.076700
     49 H14         -3.9200     2.8550    -2.6710 ha         1 RB6       0.192000
     50 H15         -4.2110     3.6230    -0.1360 h1         1 RB6       0.041700
     51 H16         -5.7990     3.3740    -0.8570 h1         1 RB6       0.041700
     52 H17         -6.0130     2.8870     1.6300 h1         1 RB6       0.042700
     53 H18         -3.7250     1.1170     2.3300 hc         1 RB6       0.055700
     54 H19         -4.2750     2.5580     3.1710 hc         1 RB6       0.055700
     55 H20         -4.6940     0.0650     4.2650 h1         1 RB6       0.046200
     56 H21         -5.9360     1.3040     4.4060 h1         1 RB6       0.046200
     57 H22         -5.7260    -0.7640     2.3740 hn         1 RB6       0.437000
     58 H24         -7.5980     1.4410     2.3560 h1         1 RB6       0.056700
     59 H25         -7.1780     0.3780     1.0220 h1         1 RB6       0.056700
@<TRIPOS>BOND
     1     1     2 2   
     2     2     3 1   
     3     2    12 1   
     4     3     4 1   
     5     3    10 2   
     6     4     5 2   
     7     4     9 1   
     8     5     6 1   
     9     6     7 1   
    10     7     8 1   
    11     7     9 2   
    12     8    37 1   
    13     8    38 1   
    14    10    11 1   
    15    11    39 1   
    16    12    13 1   
    17    12    40 1   
    18    13    14 1   
    19    13    16 1   
    20    13    41 1   
    21    14    15 2   
    22    14    42 1   
    23    16    17 1   
    24    16    19 1   
    25    16    43 1   
    26    17    18 1   
    27    18    24 1   
    28    18    44 1   
    29    18    45 1   
    30    19    20 1   
    31    19    46 1   
    32    20    21 1   
    33    20    24 2   
    34    21    22 1   
    35    21    23 1   
    36    24    25 1   
    37    25    26 1   
    38    25    47 1   
    39    25    48 1   
    40    26    27 1   
    41    26    29 2   
    42    27    28 2   
    43    27    31 1   
    44    29    30 1   
    45    29    49 1   
    46    30    31 1   
    47    30    50 1   
    48    30    51 1   
    49    31    32 1   
    50    32    33 1   
    51    32    36 1   
    52    32    52 1   
    53    33    34 1   
    54    33    53 1   
    55    33    54 1   
    56    34    35 1   
    57    34    55 1   
    58    34    56 1   
    59    35    36 1   
    60    35    57 1   
    61    36    58 1   
    62    36    59 1   
@<TRIPOS>SUBSTRUCTURE
     1 RB6         1 TEMP              0 ****  ****    0 ROOT
