@<TRIPOS>MOLECULE
RB6
   59    62     1     0     0
SMALL
No Charge or Current Charge


@<TRIPOS>ATOM
      1 OAX          2.4440    -1.9530     1.3640 o          1 RB6      -0.578100
      2 CAW          3.1280    -1.0660     0.8600 c          1 RB6       0.512800
      3 CAY          3.9730    -0.1050     1.6840 ce         1 RB6       0.279300
      4 CBB          5.2160     0.4670     1.1000 cc         1 RB6       0.609700
      5 NBF          5.7490    -0.0160    -0.0270 nd         1 RB6      -0.533100
      6 SBE          7.1310     0.8600    -0.3650 ss         1 RB6       0.016700
      7 CBD          6.8800     1.8290     1.0670 cd         1 RB6       0.696300
      8 NBG          7.6490     2.8220     1.5260 nv         1 RB6      -1.071900
      9 NBC          5.8360     1.5180     1.7610 nc         1 RB6      -0.744000
     10 NAZ          3.5030     0.3300     2.8310 n2         1 RB6      -0.274700
     11 OBA          2.1980     0.8560     2.7810 oh         1 RB6      -0.461000
     12 N            3.0480    -0.8400    -0.5090 ns         1 RB6      -0.470900
     13 CA           2.1780    -1.5980    -1.4530 c3         1 RB6      -0.014300
     14 C            2.5850    -1.3130    -2.9160 c          1 RB6       0.577900
     15 O            3.5170    -0.5760    -3.2350 o          1 RB6      -0.526100
     16 CB           0.6580    -1.3500    -1.2210 c6         1 RB6       0.366500
     17 SAS          0.2140     0.3620    -1.6750 ss         1 RB6      -0.501000
     18 CAR         -1.5650     0.2160    -1.2630 c6         1 RB6       0.142800
     19 NAC         -0.1680    -2.2440    -2.0260 nu         1 RB6      -0.798200
     20 CAD         -1.5910    -2.1510    -2.1580 ce         1 RB6       0.079800
     21 CBH         -2.2280    -3.4630    -2.7150 c          1 RB6       0.724200
     22 OBI         -3.4290    -3.5350    -2.9470 o          1 RB6      -0.703500
     23 OBJ         -1.4760    -4.4100    -2.9320 o          1 RB6      -0.703500
     24 CAE         -2.2870    -1.0300    -1.7810 c2         1 RB6      -0.260400
     25 CAF         -3.8170    -0.8940    -1.8170 c3         1 RB6       0.042000
     26 CAG         -4.3960     0.3310    -1.1220 ce         1 RB6      -0.109400
     27 CAH         -4.6810     0.3380     0.3250 c          1 RB6       0.545200
     28 OAI         -4.4700    -0.5550     1.1340 o          1 RB6      -0.511000
     29 CAQ         -4.7840     1.4850    -1.7100 c2         1 RB6      -0.270200
     30 CAP         -5.3580     2.4250    -0.6420 c5         1 RB6       0.129200
     31 NAJ         -5.2200     1.5980     0.5750 n          1 RB6      -0.428800
     32 CAK         -5.8910     2.0920     1.8170 c5         1 RB6       0.098700
     33 CAL         -4.7420     2.4440     2.8160 c5         1 RB6      -0.137400
     34 CAM         -5.1480     1.6590     4.0890 c5         1 RB6       0.137800
     35 NAN         -5.7450     0.4240     3.5440 n7         1 RB6      -0.824400
     36 CAO         -6.6830     0.9410     2.5230 c5         1 RB6       0.129800
     37 H1           8.6140     2.8370     1.2140 hn         1 RB6       0.503000
     38 H2           7.4880     3.0790     2.4920 hn         1 RB6       0.503000
     39 H3           1.9990     1.1340     3.7070 ho         1 RB6       0.467000
     40 H4           3.6510    -0.1170    -0.8970 hn         1 RB6       0.358500
     41 H5           2.3610    -2.6670    -1.2890 h1         1 RB6       0.098700
     42 H6           1.9810    -1.8320    -3.6920 h4         1 RB6       0.028200
     43 H7           0.4240    -1.4750    -0.1530 h2         1 RB6       0.052700
     44 H8          -1.6500     0.2520    -0.1680 h1         1 RB6       0.047700
     45 H9          -2.0370     1.1250    -1.6610 h1         1 RB6       0.047700
     46 H10          0.1910    -3.1830    -2.2260 hn         1 RB6       0.501000
     47 H12         -4.1530    -0.9010    -2.8610 hc         1 RB6       0.076700
     48 H13         -4.2710    -1.7790    -1.3560 hc         1 RB6       0.076700
     49 H14         -4.7040     1.7060    -2.7750 ha         1 RB6       0.192000
     50 H15         -4.7810     3.3560    -0.5590 h1         1 RB6       0.041700
     51 H16         -6.4090     2.6780    -0.8400 h1         1 RB6       0.041700
     52 H17         -6.5430     2.9530     1.6120 h1         1 RB6       0.042700
     53 H18         -3.7570     2.1170     2.4610 hc         1 RB6       0.055700
     54 H19         -4.6710     3.5210     3.0040 hc         1 RB6       0.055700
     55 H20         -4.2850     1.4470     4.7360 h1         1 RB6       0.046200
     56 H21         -5.8870     2.2180     4.6820 h1         1 RB6       0.046200
     57 H22         -5.0090    -0.0770     3.0200 hn         1 RB6       0.437000
     58 H24         -7.5800     1.3490     3.0100 h1         1 RB6       0.056700
     59 H25         -7.0180     0.1600     1.8260 h1         1 RB6       0.056700
@<TRIPOS>BOND
     1     1     2 2   
     2     2     3 1   
     3     2    12 1   
     4     3     4 1   
     5     3    10 2   
     6     4     5 2   
     7     4     9 1   
     8     5     6 1   
     9     6     7 1   
    10     7     8 1   
    11     7     9 2   
    12     8    37 1   
    13     8    38 1   
    14    10    11 1   
    15    11    39 1   
    16    12    13 1   
    17    12    40 1   
    18    13    14 1   
    19    13    16 1   
    20    13    41 1   
    21    14    15 2   
    22    14    42 1   
    23    16    17 1   
    24    16    19 1   
    25    16    43 1   
    26    17    18 1   
    27    18    24 1   
    28    18    44 1   
    29    18    45 1   
    30    19    20 1   
    31    19    46 1   
    32    20    21 1   
    33    20    24 2   
    34    21    22 1   
    35    21    23 1   
    36    24    25 1   
    37    25    26 1   
    38    25    47 1   
    39    25    48 1   
    40    26    27 1   
    41    26    29 2   
    42    27    28 2   
    43    27    31 1   
    44    29    30 1   
    45    29    49 1   
    46    30    31 1   
    47    30    50 1   
    48    30    51 1   
    49    31    32 1   
    50    32    33 1   
    51    32    36 1   
    52    32    52 1   
    53    33    34 1   
    54    33    53 1   
    55    33    54 1   
    56    34    35 1   
    57    34    55 1   
    58    34    56 1   
    59    35    36 1   
    60    35    57 1   
    61    36    58 1   
    62    36    59 1   
@<TRIPOS>SUBSTRUCTURE
     1 RB6         1 TEMP              0 ****  ****    0 ROOT
