@<TRIPOS>MOLECULE
RB7
   32    32     1     0     0
SMALL
abcg2


@<TRIPOS>ATOM
      1 C4          25.0630     2.3660    61.1930 ca         1 RB7      -0.103000
      2 C5          23.8130     1.7700    61.2760 ca         1 RB7      -0.079000
      3 C6          23.5470     0.6390    60.5190 ca         1 RB7      -0.013900
      4 C8          26.6660     4.3340    58.8110 c3         1 RB7       0.186800
      5 C9          27.1110     5.1530    57.6060 c3         1 RB7      -0.304400
      6 C10         26.7430     7.4020    55.9650 c3         1 RB7      -0.335100
      7 O1          26.0910     7.4150    58.5230 o          1 RB7      -0.517000
      8 S           26.0200     6.5470    57.3460 s6         1 RB7       1.082000
      9 O           24.7020     6.0490    56.9480 o          1 RB7      -0.517000
     10 N           27.5990     3.2410    58.9950 n7         1 RB7      -0.856400
     11 C3          26.0460     1.8390    60.3660 ca         1 RB7      -0.116300
     12 C2          25.7440     0.7040    59.6200 ca         1 RB7      -0.109000
     13 BR          21.8320    -0.1500    60.6640 br         1 RB7      -0.101100
     14 C1          24.5030     0.0740    59.6730 ca         1 RB7      -0.044300
     15 C           24.2440    -1.1520    58.8520 c3         1 RB7      -0.050800
     16 H1          25.2670     3.2490    61.7880 ha         1 RB7       0.119000
     17 H2          23.0590     2.1910    61.9270 ha         1 RB7       0.132000
     18 H3          28.1830     1.7440    60.2920 h1         1 RB7       0.063200
     19 H4          27.5520     3.1860    61.0670 h1         1 RB7       0.063200
     20 H5          26.6940     4.9600    59.7050 h1         1 RB7       0.055200
     21 H6          25.6260     4.0080    58.6780 h1         1 RB7       0.055200
     22 H7          27.0970     4.5610    56.6890 h1         1 RB7       0.099200
     23 H8          28.1160     5.5510    57.7540 h1         1 RB7       0.099200
     24 H9          27.7430     7.7380    56.2290 h1         1 RB7       0.104367
     25 H10         26.7770     6.7380    55.1040 h1         1 RB7       0.104367
     26 H11         26.1080     8.2590    55.7480 h1         1 RB7       0.104367
     27 H12         27.5430     2.6090    58.2050 hn         1 RB7       0.412000
     28 H14         26.5030     0.2760    58.9730 ha         1 RB7       0.111000
     29 H15         24.0060    -2.0130    59.4780 hc         1 RB7       0.051367
     30 H16         23.4070    -1.0100    58.1670 hc         1 RB7       0.051367
     31 H17         25.1200    -1.4050    58.2580 hc         1 RB7       0.051367
     32 C7          27.3980     2.5000    60.2300 c3         1 RB7       0.203100
@<TRIPOS>BOND
     1     1     2 ar  
     2     1    11 ar  
     3     1    16 1   
     4     2     3 ar  
     5     2    17 1   
     6     3    13 1   
     7     3    14 ar  
     8     4     5 1   
     9     4    10 1   
    10     4    20 1   
    11     4    21 1   
    12     5     8 1   
    13     5    22 1   
    14     5    23 1   
    15     6     8 1   
    16     6    24 1   
    17     6    25 1   
    18     6    26 1   
    19     7     8 2   
    20     8     9 2   
    21    10    27 1   
    22    10    32 1   
    23    11    12 ar  
    24    11    32 1   
    25    12    14 ar  
    26    12    28 1   
    27    14    15 1   
    28    15    29 1   
    29    15    30 1   
    30    15    31 1   
    31    18    32 1   
    32    19    32 1   
@<TRIPOS>SUBSTRUCTURE
     1 RB7         1 TEMP              0 ****  ****    0 ROOT
