@<TRIPOS>MOLECULE
RB7
   32    32     1     0     0
SMALL
No Charge or Current Charge


@<TRIPOS>ATOM
      1 C4          25.0410     2.3660    61.1730 ca         1 RB7      -0.103000
      2 C5          23.7740     1.7600    61.2100 ca         1 RB7      -0.079000
      3 C6          23.5170     0.6130    60.4410 ca         1 RB7      -0.013900
      4 C8          26.7240     4.4530    58.9520 c3         1 RB7       0.186800
      5 C9          27.0840     5.1640    57.6480 c3         1 RB7      -0.304400
      6 C10         26.6540     7.3150    55.8480 c3         1 RB7      -0.335100
      7 O1          26.4200     7.5990    58.4620 o          1 RB7      -0.517000
      8 S           26.0840     6.6380    57.4050 s6         1 RB7       1.082000
      9 O           24.6880     6.2180    57.2270 o          1 RB7      -0.517000
     10 N           27.6020     3.2820    59.0840 n7         1 RB7      -0.856400
     11 C3          26.0600     1.8290    60.3640 ca         1 RB7      -0.116300
     12 C2          25.7980     0.6770    59.5960 ca         1 RB7      -0.109000
     13 Br          21.7690    -0.1760    60.5270 br         1 RB7      -0.101100
     14 C1          24.5310     0.0610    59.6270 ca         1 RB7      -0.044300
     15 C           24.2750    -1.1840    58.7840 c3         1 RB7      -0.050800
     16 H1          25.2270     3.2560    61.7710 ha         1 RB7       0.119000
     17 H2          22.9910     2.1820    61.8360 ha         1 RB7       0.132000
     18 H3          28.2000     1.6990    60.3670 h1         1 RB7       0.063200
     19 H4          27.5730     3.1170    61.2080 h1         1 RB7       0.063200
     20 H5          26.8640     5.1400    59.8000 h1         1 RB7       0.055200
     21 H6          25.6650     4.1530    58.9290 h1         1 RB7       0.055200
     22 H7          26.9050     4.5170    56.7830 h1         1 RB7       0.099200
     23 H8          28.1290     5.4920    57.6600 h1         1 RB7       0.099200
     24 H9          27.7190     7.5440    55.9540 h1         1 RB7       0.104367
     25 H10         26.4840     6.5600    55.0730 h1         1 RB7       0.104367
     26 H11         26.0730     8.2220    55.6500 h1         1 RB7       0.104367
     27 H12         27.4260     2.6600    58.2870 hn         1 RB7       0.412000
     28 H14         26.5860     0.2600    58.9730 ha         1 RB7       0.111000
     29 H15         23.9940    -2.0360    59.4150 hc         1 RB7       0.051367
     30 H16         23.4660    -1.0140    58.0640 hc         1 RB7       0.051367
     31 H17         25.1640    -1.4790    58.2140 hc         1 RB7       0.051367
     32 C7          27.4350     2.4860    60.3180 c3         1 RB7       0.203100
@<TRIPOS>BOND
     1     1     2 ar  
     2     1    11 ar  
     3     1    16 1   
     4     2     3 ar  
     5     2    17 1   
     6     3    13 1   
     7     3    14 ar  
     8     4     5 1   
     9     4    10 1   
    10     4    20 1   
    11     4    21 1   
    12     5     8 1   
    13     5    22 1   
    14     5    23 1   
    15     6     8 1   
    16     6    24 1   
    17     6    25 1   
    18     6    26 1   
    19     7     8 2   
    20     8     9 2   
    21    10    27 1   
    22    10    32 1   
    23    11    12 ar  
    24    11    32 1   
    25    12    14 ar  
    26    12    28 1   
    27    14    15 1   
    28    15    29 1   
    29    15    30 1   
    30    15    31 1   
    31    18    32 1   
    32    19    32 1   
@<TRIPOS>SUBSTRUCTURE
     1 RB7         1 TEMP              0 ****  ****    0 ROOT
