@<TRIPOS>MOLECULE
RB8
   26    26     1     0     0
SMALL
No Charge or Current Charge


@<TRIPOS>ATOM
      1 O1          21.3540    30.4590   -30.0050 o          1 RB8      -0.694533
      2 S1          22.4910    30.2770   -29.0900 s6         1 RB8       1.327600
      3 O2          22.1190    29.9260   -27.7130 o          1 RB8      -0.694533
      4 O3          23.5940    29.4780   -29.6430 o          1 RB8      -0.694533
      5 C1          23.1960    31.9210   -28.9600 c3         1 RB8      -0.362400
      6 C2          22.2720    33.0720   -28.5270 c5         1 RB8       0.220300
      7 O4          22.1030    33.0630   -27.0820 os         1 RB8      -0.432000
      8 C3          22.4800    34.3440   -26.5460 c5         1 RB8       0.363000
      9 O5          23.8570    34.3130   -26.2040 oh         1 RB8      -0.721000
     10 C4          21.7040    34.6300   -25.2190 c3         1 RB8       0.141600
     11 O6          22.2410    33.8410   -24.1300 oh         1 RB8      -0.695000
     12 C5          22.1790    35.3260   -27.7300 c5         1 RB8       0.104300
     13 O7          22.7580    36.6380   -27.5880 oh         1 RB8      -0.701000
     14 C6          22.8150    34.5000   -28.8840 c5         1 RB8       0.136300
     15 O8          22.4200    34.9820   -30.1800 oh         1 RB8      -0.705000
     16 H1          24.0470    31.8430   -28.2760 h1         1 RB8       0.076700
     17 H2          23.5750    32.1370   -29.9640 h1         1 RB8       0.076700
     18 H3          21.2820    32.9340   -28.9860 h1         1 RB8       0.087700
     19 H4          23.8040    33.9470   -25.2860 ho         1 RB8       0.527000
     20 H5          21.7790    35.7000   -24.9840 h1         1 RB8       0.023700
     21 H6          20.6410    34.4000   -25.3740 h1         1 RB8       0.023700
     22 H7          21.6240    33.9430   -23.3670 ho         1 RB8       0.492000
     23 H8          21.0930    35.4130   -27.8740 h1         1 RB8       0.044700
     24 H9          23.6230    36.4990   -27.1330 ho         1 RB8       0.492000
     25 H10         23.9120    34.5110   -28.8040 h1         1 RB8       0.065700
     26 H11         22.5390    35.9610   -30.1520 ho         1 RB8       0.497000
@<TRIPOS>BOND
     1     1     2 1   
     2     2     3 1   
     3     2     4 1   
     4     2     5 1   
     5     5     6 1   
     6     5    16 1   
     7     5    17 1   
     8     6     7 1   
     9     6    14 1   
    10     6    18 1   
    11     7     8 1   
    12     8     9 1   
    13     8    10 1   
    14     8    12 1   
    15     9    19 1   
    16    10    11 1   
    17    10    20 1   
    18    10    21 1   
    19    11    22 1   
    20    12    13 1   
    21    12    14 1   
    22    12    23 1   
    23    13    24 1   
    24    14    15 1   
    25    14    25 1   
    26    15    26 1   
@<TRIPOS>SUBSTRUCTURE
     1 RB8         1 TEMP              0 ****  ****    0 ROOT
