@<TRIPOS>MOLECULE
RB8
   26    26     1     0     0
SMALL
bcc


@<TRIPOS>ATOM
      1 O1          21.1340    30.4150   -29.3850 o          1 RB8      -0.694533
      2 S1          22.5210    30.3470   -28.8820 s6         1 RB8       1.216800
      3 O2          22.6070    30.0230   -27.4470 o          1 RB8      -0.694533
      4 O3          23.3980    29.5040   -29.7190 o          1 RB8      -0.694533
      5 C1          23.1770    32.0220   -29.0770 c3         1 RB8      -0.251600
      6 C2          22.2760    33.1270   -28.5610 c5         1 RB8       0.197100
      7 O4          22.0880    33.0680   -27.1530 os         1 RB8      -0.385600
      8 C3          22.5310    34.2550   -26.5330 c5         1 RB8       0.316600
      9 O5          23.8700    34.1710   -26.1710 oh         1 RB8      -0.598800
     10 C4          21.6540    34.5320   -25.3210 c3         1 RB8       0.118400
     11 O6          21.9150    33.5500   -24.3450 oh         1 RB8      -0.572800
     12 C5          22.3850    35.3100   -27.6400 c5         1 RB8       0.081100
     13 O7          23.1400    36.4740   -27.4860 oh         1 RB8      -0.578800
     14 C6          22.8320    34.5210   -28.8610 c5         1 RB8       0.113100
     15 O8          22.3320    34.9760   -30.0880 oh         1 RB8      -0.582800
     16 H1          24.1580    32.0580   -28.5970 h1         1 RB8       0.076700
     17 H2          23.3240    32.1730   -30.1490 h1         1 RB8       0.076700
     18 H3          21.2950    33.0360   -29.0420 h1         1 RB8       0.087700
     19 H4          23.9270    33.6540   -25.3570 ho         1 RB8       0.428000
     20 H5          21.8900    35.5370   -24.9510 h1         1 RB8       0.023700
     21 H6          20.6020    34.5370   -25.6290 h1         1 RB8       0.023700
     22 H7          21.6970    33.9070   -23.4800 ho         1 RB8       0.393000
     23 H8          21.3120    35.5320   -27.7490 h1         1 RB8       0.044700
     24 H9          22.6920    37.0620   -26.8700 ho         1 RB8       0.393000
     25 H10         23.9320    34.4950   -28.8730 h1         1 RB8       0.065700
     26 H11         22.8130    35.7720   -30.3370 ho         1 RB8       0.398000
@<TRIPOS>BOND
     1     1     2 1   
     2     2     3 1   
     3     2     4 1   
     4     2     5 1   
     5     5     6 1   
     6     5    16 1   
     7     5    17 1   
     8     6     7 1   
     9     6    14 1   
    10     6    18 1   
    11     7     8 1   
    12     8     9 1   
    13     8    10 1   
    14     8    12 1   
    15     9    19 1   
    16    10    11 1   
    17    10    20 1   
    18    10    21 1   
    19    11    22 1   
    20    12    13 1   
    21    12    14 1   
    22    12    23 1   
    23    13    24 1   
    24    14    15 1   
    25    14    25 1   
    26    15    26 1   
@<TRIPOS>SUBSTRUCTURE
     1 RB8         1 TEMP              0 ****  ****    0 ROOT
