@<TRIPOS>MOLECULE
RB9
   65    69     1     0     0
SMALL
abcg2


@<TRIPOS>ATOM
      1 C1           2.3400     0.7810    -0.0880 cc         1 RB9      -0.254600
      2 N1           3.4050    -1.3370     0.2930 ns         1 RB9      -0.488900
      3 O1           1.3790    -0.9710     1.1860 o          1 RB9      -0.660100
      4 S1           1.4100     2.8500    -1.3210 ss         1 RB9       0.314000
      5 C2           2.3390    -0.5640     0.5290 c          1 RB9       0.643700
      6 N2          -0.1020     0.8970    -0.1930 ns         1 RB9      -0.386100
      7 O2          -1.2700     2.4620    -1.3130 o          1 RB9      -0.565100
      8 C3           3.5190    -2.6860     0.8160 c3         1 RB9       0.153300
      9 N3          -3.6860     1.2440    -0.8170 n7         1 RB9      -0.851400
     10 C4           4.8230    -3.3000     0.3840 ca         1 RB9      -0.112300
     11 N4          -9.1000    -1.0780    -0.9830 na         1 RB9      -0.224700
     12 C5           3.4780     1.5620    -0.4910 cc         1 RB9      -0.014000
     13 C6           4.8870     1.2720    -0.1570 ca         1 RB9      -0.034000
     14 C7           3.1140     2.6830    -1.1650 cd         1 RB9      -0.288000
     15 C8           1.1540     1.3860    -0.4500 cd         1 RB9      -0.008400
     16 C9          -1.2610     1.4510    -0.6380 c          1 RB9       0.598100
     17 C10         -2.5030     0.7110    -0.1960 c3         1 RB9       0.090800
     18 C11         -4.8780     0.4930    -0.4690 c3         1 RB9       0.158800
     19 C12         -6.1020     1.0690    -1.1760 c3         1 RB9      -0.001200
     20 C13         -7.3530     0.3250    -0.8470 cc         1 RB9      -0.143400
     21 C14          5.8430     1.1310    -1.1610 ca         1 RB9      -0.096500
     22 C15          7.1740     0.8940    -0.8390 ca         1 RB9      -0.114500
     23 C16          7.5640     0.8000     0.4890 ca         1 RB9      -0.108000
     24 C17          6.6160     0.9390     1.4970 ca         1 RB9      -0.114500
     25 C18          5.2870     1.1680     1.1760 ca         1 RB9      -0.096500
     26 C19          6.0320    -2.6820     0.6990 ca         1 RB9      -0.097500
     27 C20          7.2350    -3.2420     0.2970 ca         1 RB9      -0.111500
     28 C21          7.2470    -4.4340    -0.4170 ca         1 RB9      -0.104000
     29 C22          6.0470    -5.0570    -0.7320 ca         1 RB9      -0.111500
     30 C23          4.8420    -4.4890    -0.3370 ca         1 RB9      -0.097500
     31 C24         -8.0080    -0.5770    -1.6380 cd         1 RB9      -0.153100
     32 C25         -9.1820    -0.5100     0.2540 ca         1 RB9      -0.046200
     33 C26         -8.0940     0.3830     0.3790 ca         1 RB9      -0.096800
     34 C27         -7.9450     1.1110     1.5650 ca         1 RB9      -0.062000
     35 C28         -8.8660     0.9350     2.5800 ca         1 RB9      -0.141000
     36 C29         -9.9390     0.0390     2.4350 ca         1 RB9      -0.092000
     37 C30        -10.1130    -0.6920     1.2760 ca         1 RB9      -0.128000
     38 HN1          4.1350    -1.0080    -0.3170 hn         1 RB9       0.333500
     39 HN2         -0.1210     0.0750     0.4050 hn         1 RB9       0.367500
     40 H3           3.4590    -2.6610     1.9070 h1         1 RB9       0.057700
     41 H3A          2.6840    -3.2990     0.4670 h1         1 RB9       0.057700
     42 HN3         -3.8080     2.2100    -0.5380 hn         1 RB9       0.424000
     43 H7           3.7660     3.4540    -1.5470 h4         1 RB9       0.155000
     44 H10         -2.5260     0.7240     0.9060 h1         1 RB9       0.055200
     45 H10A        -2.3940    -0.3420    -0.4750 h1         1 RB9       0.055200
     46 H11         -4.7380    -0.5440    -0.7880 h1         1 RB9       0.034200
     47 H11A        -5.0590     0.4610     0.6160 h1         1 RB9       0.034200
     48 H12         -6.2120     2.1230    -0.8970 hc         1 RB9       0.052700
     49 H12A        -5.9290     1.0490    -2.2540 hc         1 RB9       0.052700
     50 H14          5.5420     1.2000    -2.1990 ha         1 RB9       0.121500
     51 H15          7.9050     0.7830    -1.6290 ha         1 RB9       0.115500
     52 H16          8.6000     0.6150     0.7400 ha         1 RB9       0.113000
     53 H17          6.9120     0.8670     2.5360 ha         1 RB9       0.115500
     54 H18          4.5530     1.2760     1.9660 ha         1 RB9       0.121500
     55 H19          6.0360    -1.7550     1.2600 ha         1 RB9       0.117500
     56 H20          8.1660    -2.7480     0.5430 ha         1 RB9       0.113500
     57 H21          8.1860    -4.8730    -0.7260 ha         1 RB9       0.113000
     58 H22          6.0470    -5.9840    -1.2920 ha         1 RB9       0.113500
     59 H23          3.9080    -4.9760    -0.5920 ha         1 RB9       0.117500
     60 H24         -7.7740    -0.9030    -2.6390 h4         1 RB9       0.213000
     61 H27         -7.1220     1.8060     1.6860 ha         1 RB9       0.112000
     62 H28         -8.7640     1.4940     3.5020 ha         1 RB9       0.110000
     63 H29        -10.6420    -0.0810     3.2490 ha         1 RB9       0.109000
     64 H30        -10.9420    -1.3800     1.1670 ha         1 RB9       0.112000
     65 HN4         -9.7430    -1.7490    -1.3670 hn         1 RB9       0.350000
@<TRIPOS>BOND
     1     1     5 1   
     2     1    12 1   
     3     1    15 2   
     4     2     5 1   
     5     2     8 1   
     6     2    38 1   
     7     3     5 2   
     8     4    14 1   
     9     4    15 1   
    10     6    15 1   
    11     6    16 1   
    12     6    39 1   
    13     7    16 2   
    14     8    10 1   
    15     8    40 1   
    16     8    41 1   
    17     9    17 1   
    18     9    18 1   
    19     9    42 1   
    20    10    26 ar  
    21    10    30 ar  
    22    11    31 1   
    23    11    32 1   
    24    11    65 1   
    25    12    13 1   
    26    12    14 2   
    27    13    21 ar  
    28    13    25 ar  
    29    14    43 1   
    30    16    17 1   
    31    17    44 1   
    32    17    45 1   
    33    18    19 1   
    34    18    46 1   
    35    18    47 1   
    36    19    20 1   
    37    19    48 1   
    38    19    49 1   
    39    20    31 2   
    40    20    33 1   
    41    21    22 ar  
    42    21    50 1   
    43    22    23 ar  
    44    22    51 1   
    45    23    24 ar  
    46    23    52 1   
    47    24    25 ar  
    48    24    53 1   
    49    25    54 1   
    50    26    27 ar  
    51    26    55 1   
    52    27    28 ar  
    53    27    56 1   
    54    28    29 ar  
    55    28    57 1   
    56    29    30 ar  
    57    29    58 1   
    58    30    59 1   
    59    31    60 1   
    60    32    33 ar  
    61    32    37 ar  
    62    33    34 ar  
    63    34    35 ar  
    64    34    61 1   
    65    35    36 ar  
    66    35    62 1   
    67    36    37 ar  
    68    36    63 1   
    69    37    64 1   
@<TRIPOS>SUBSTRUCTURE
     1 RB9         1 TEMP              0 ****  ****    0 ROOT
