@<TRIPOS>MOLECULE
RB9
   65    69     1     0     0
SMALL
No Charge or Current Charge


@<TRIPOS>ATOM
      1 C1           2.2900     0.6350    -0.4950 cc         1 RB9      -0.254600
      2 N1           3.3010    -1.5410    -0.2770 ns         1 RB9      -0.488900
      3 O1           1.1400    -1.3150     0.3360 o          1 RB9      -0.660100
      4 S1           1.6060     3.0510    -1.3050 ss         1 RB9       0.314000
      5 C2           2.1700    -0.8000    -0.0820 c          1 RB9       0.643700
      6 N2          -0.1060     1.0040    -0.3930 ns         1 RB9      -0.386100
      7 O2          -1.4000     2.8250    -0.9240 o          1 RB9      -0.565100
      8 C3           3.4700    -2.9430     0.0810 c3         1 RB9       0.153300
      9 N3          -3.8410     1.1990    -0.8010 n7         1 RB9      -0.851400
     10 C4           4.9380    -3.2360     0.3500 ca         1 RB9      -0.112300
     11 N4          -9.3520    -1.2190    -0.6480 na         1 RB9      -0.224700
     12 C5           3.5130     1.3160    -0.8450 cc         1 RB9      -0.014000
     13 C6           4.9170     0.9610    -0.5740 ca         1 RB9      -0.034000
     14 C7           3.3140     2.6060    -1.2770 cd         1 RB9      -0.288000
     15 C8           1.1830     1.4470    -0.6620 cd         1 RB9      -0.008400
     16 C9          -1.3130     1.6690    -0.5240 c          1 RB9       0.598100
     17 C10         -2.5630     0.8270    -0.1090 c3         1 RB9       0.090800
     18 C11         -5.0440     0.4770    -0.3390 c3         1 RB9       0.158800
     19 C12         -6.2880     0.9070    -1.1450 c3         1 RB9      -0.001200
     20 C13         -7.5420     0.1920    -0.7120 cc         1 RB9      -0.143400
     21 C14          5.9310     1.3140    -1.4920 ca         1 RB9      -0.096500
     22 C15          7.2740     0.9820    -1.2430 ca         1 RB9      -0.114500
     23 C16          7.6260     0.3090    -0.0620 ca         1 RB9      -0.108000
     24 C17          6.6340    -0.0150     0.8760 ca         1 RB9      -0.114500
     25 C18          5.2920     0.3170     0.6260 ca         1 RB9      -0.096500
     26 C19          5.4030    -3.3940     1.6710 ca         1 RB9      -0.097500
     27 C20          6.7660    -3.6340     1.9180 ca         1 RB9      -0.111500
     28 C21          7.6720    -3.7140     0.8470 ca         1 RB9      -0.104000
     29 C22          7.2140    -3.5540    -0.4720 ca         1 RB9      -0.111500
     30 C23          5.8510    -3.3170    -0.7200 ca         1 RB9      -0.097500
     31 C24         -8.2350    -0.7950    -1.4080 cd         1 RB9      -0.153100
     32 C25         -9.3260    -0.4730     0.5150 ca         1 RB9      -0.046200
     33 C26         -8.2610     0.3830     0.5170 ca         1 RB9      -0.096800
     34 C27         -8.0160     1.2580     1.5860 ca         1 RB9      -0.062000
     35 C28         -8.9060     1.2290     2.6810 ca         1 RB9      -0.141000
     36 C29        -10.0070     0.3410     2.6830 ca         1 RB9      -0.092000
     37 C30        -10.2260    -0.5230     1.5890 ca         1 RB9      -0.128000
     38 HN1          4.1030    -1.0390    -0.6350 hn         1 RB9       0.333500
     39 HN2         -0.1930     0.0520    -0.0430 hn         1 RB9       0.367500
     40 H3           2.8720    -3.1710     0.9740 h1         1 RB9       0.057700
     41 H3A          3.1080    -3.5690    -0.7450 h1         1 RB9       0.057700
     42 HN3         -3.9950     2.2090    -0.6700 hn         1 RB9       0.424000
     43 H7           4.0560     3.3540    -1.5250 h4         1 RB9       0.155000
     44 H10         -2.6650     0.9370     0.9790 h1         1 RB9       0.055200
     45 H10A        -2.3290    -0.2290    -0.3030 h1         1 RB9       0.055200
     46 H11         -4.9060    -0.6070    -0.4570 h1         1 RB9       0.034200
     47 H11A        -5.2200     0.6740     0.7280 h1         1 RB9       0.034200
     48 H12         -6.4320     1.9890    -1.0380 hc         1 RB9       0.052700
     49 H12A        -6.1060     0.7190    -2.2100 hc         1 RB9       0.052700
     50 H14          5.6750     1.8240    -2.4180 ha         1 RB9       0.121500
     51 H15          8.0410     1.2440    -1.9680 ha         1 RB9       0.115500
     52 H16          8.6650     0.0500     0.1300 ha         1 RB9       0.113000
     53 H17          6.9060    -0.5210     1.8000 ha         1 RB9       0.115500
     54 H18          4.5440     0.0880     1.3820 ha         1 RB9       0.121500
     55 H19          4.7100    -3.3240     2.5070 ha         1 RB9       0.117500
     56 H20          7.1200    -3.7540     2.9400 ha         1 RB9       0.113500
     57 H21          8.7270    -3.8960     1.0390 ha         1 RB9       0.113000
     58 H22          7.9150    -3.6120    -1.3010 ha         1 RB9       0.113500
     59 H23          5.5060    -3.1880    -1.7430 ha         1 RB9       0.117500
     60 H24         -8.0110    -1.2260    -2.3810 h4         1 RB9       0.213000
     61 H27         -7.1690     1.9400     1.5740 ha         1 RB9       0.112000
     62 H28         -8.7440     1.8940     3.5260 ha         1 RB9       0.110000
     63 H29        -10.6890     0.3250     3.5300 ha         1 RB9       0.109000
     64 H30        -11.0720    -1.2080     1.5800 ha         1 RB9       0.112000
     65 HN4        -10.0350    -1.9270    -0.9040 hn         1 RB9       0.350000
@<TRIPOS>BOND
     1     1     5 1   
     2     1    12 1   
     3     1    15 2   
     4     2     5 1   
     5     2     8 1   
     6     2    38 1   
     7     3     5 2   
     8     4    14 1   
     9     4    15 1   
    10     6    15 1   
    11     6    16 1   
    12     6    39 1   
    13     7    16 2   
    14     8    10 1   
    15     8    40 1   
    16     8    41 1   
    17     9    17 1   
    18     9    18 1   
    19     9    42 1   
    20    10    26 ar  
    21    10    30 ar  
    22    11    31 1   
    23    11    32 1   
    24    11    65 1   
    25    12    13 1   
    26    12    14 2   
    27    13    21 ar  
    28    13    25 ar  
    29    14    43 1   
    30    16    17 1   
    31    17    44 1   
    32    17    45 1   
    33    18    19 1   
    34    18    46 1   
    35    18    47 1   
    36    19    20 1   
    37    19    48 1   
    38    19    49 1   
    39    20    31 2   
    40    20    33 1   
    41    21    22 ar  
    42    21    50 1   
    43    22    23 ar  
    44    22    51 1   
    45    23    24 ar  
    46    23    52 1   
    47    24    25 ar  
    48    24    53 1   
    49    25    54 1   
    50    26    27 ar  
    51    26    55 1   
    52    27    28 ar  
    53    27    56 1   
    54    28    29 ar  
    55    28    57 1   
    56    29    30 ar  
    57    29    58 1   
    58    30    59 1   
    59    31    60 1   
    60    32    33 ar  
    61    32    37 ar  
    62    33    34 ar  
    63    34    35 ar  
    64    34    61 1   
    65    35    36 ar  
    66    35    62 1   
    67    36    37 ar  
    68    36    63 1   
    69    37    64 1   
@<TRIPOS>SUBSTRUCTURE
     1 RB9         1 TEMP              0 ****  ****    0 ROOT
