@<TRIPOS>MOLECULE
RBB
   44    47     1     0     0
SMALL
No Charge or Current Charge


@<TRIPOS>ATOM
      1 C18        -46.3490   -29.6100     2.0710 c6         1 RBB       0.168800
      2 C16        -44.6050   -28.7540     6.1610 ca         1 RBB       0.181900
      3 C14        -46.4550   -30.0150     6.5430 ca         1 RBB       0.194500
      4 C12        -47.9040   -32.2170     3.9270 ca         1 RBB      -0.048000
      5 C11        -49.0220   -33.0690     4.0760 ca         1 RBB      -0.135000
      6 C10        -49.7340   -33.1230     5.3000 ca         1 RBB      -0.096000
      7 C19        -45.7750   -29.2250     0.6680 c6         1 RBB       0.180300
      8 C01        -42.3310   -28.7010     1.8970 c3         1 RBB      -0.089600
      9 C02        -43.4610   -29.5840     1.3000 c6         1 RBB       0.150000
     10 C03        -44.0200   -30.6050     2.3710 c6         1 RBB       0.197800
     11 C05        -45.4220   -29.9630     4.3680 ca         1 RBB       0.458900
     12 C06        -46.4320   -30.4600     5.2180 cp         1 RBB      -0.224000
     13 C07        -47.5260   -31.4090     5.0180 cp         1 RBB      -0.014000
     14 C08        -48.2260   -31.4990     6.2150 ca         1 RBB      -0.022200
     15 C09        -49.3310   -32.3340     6.3980 ca         1 RBB      -0.140000
     16 C21        -46.6530   -28.2390    -0.1540 c3         1 RBB      -0.201400
     17 C22        -46.9110   -26.9090     0.5690 c          1 RBB       0.717000
     18 C25        -42.8950   -30.3220     0.0490 c3         1 RBB      -0.089600
     19 N04        -45.3390   -30.2410     2.9910 nh         1 RBB      -0.752300
     20 N13        -47.5680   -30.6480     7.1120 na         1 RBB      -0.337300
     21 N15        -45.5490   -29.1610     7.0390 nb         1 RBB      -0.273000
     22 N17        -44.5000   -29.1040     4.8570 nb         1 RBB      -0.318000
     23 O20        -44.4670   -28.6470     0.8400 os         1 RBB      -0.419000
     24 O23        -46.1510   -25.9740     0.3670 o          1 RBB      -0.732500
     25 O24        -47.8940   -26.8320     1.2900 o          1 RBB      -0.732500
     26 H182       -46.7360   -28.7010     2.5530 h1         1 RBB       0.081200
     27 H181       -47.2140   -30.2710     1.9230 h1         1 RBB       0.081200
     28 H111       -49.3320   -33.6970     3.2440 ha         1 RBB       0.106000
     29 H101       -50.5890   -33.7880     5.3980 ha         1 RBB       0.100000
     30 H191       -45.6750   -30.1400     0.0680 h1         1 RBB      -0.006300
     31 H013       -41.4840   -29.3110     2.2350 hc         1 RBB       0.038200
     32 H012       -41.9490   -27.9840     1.1600 hc         1 RBB       0.038200
     33 H011       -42.6900   -28.1290     2.7600 hc         1 RBB       0.038200
     34 H032       -44.1350   -31.5860     1.8890 h1         1 RBB       0.057700
     35 H031       -43.2590   -30.7630     3.1490 h1         1 RBB       0.057700
     36 H091       -49.8540   -32.3810     7.3500 ha         1 RBB       0.104000
     37 H212       -47.6050   -28.7590    -0.3110 hc         1 RBB       0.031200
     38 H211       -46.1070   -28.0540    -1.0870 hc         1 RBB       0.031200
     39 H252       -42.0310   -30.9420     0.3160 hc         1 RBB       0.038200
     40 H251       -43.6390   -30.9860    -0.4070 hc         1 RBB       0.038200
     41 H253       -42.5680   -29.6130    -0.7200 hc         1 RBB       0.038200
     42 H131       -47.8530   -30.5070     8.0730 hn         1 RBB       0.353000
     43 H161       -43.8550   -28.0620     6.5400 h5         1 RBB       0.030100
     44 H121       -47.3410   -32.2050     2.9990 ha         1 RBB       0.120000
@<TRIPOS>BOND
     1     1     7 1   
     2     1    19 1   
     3     1    26 1   
     4     1    27 1   
     5     2    21 ar  
     6     2    22 ar  
     7     2    43 1   
     8     3    12 ar  
     9     3    20 1   
    10     3    21 ar  
    11     4     5 ar  
    12     4    13 ar  
    13     4    44 1   
    14     5     6 ar  
    15     5    28 1   
    16     6    15 ar  
    17     6    29 1   
    18     7    16 1   
    19     7    23 1   
    20     7    30 1   
    21     8     9 1   
    22     8    31 1   
    23     8    32 1   
    24     8    33 1   
    25     9    10 1   
    26     9    18 1   
    27     9    23 1   
    28    10    19 1   
    29    10    34 1   
    30    10    35 1   
    31    11    12 ar  
    32    11    19 1   
    33    11    22 ar  
    34    12    13 1   
    35    13    14 ar  
    36    14    15 ar  
    37    14    20 1   
    38    15    36 1   
    39    16    17 1   
    40    16    37 1   
    41    16    38 1   
    42    17    24 1   
    43    17    25 1   
    44    18    39 1   
    45    18    40 1   
    46    18    41 1   
    47    20    42 1   
@<TRIPOS>SUBSTRUCTURE
     1 RBB         1 TEMP              0 ****  ****    0 ROOT
