@<TRIPOS>MOLECULE
RBB
   44    47     1     0     0
SMALL
abcg2


@<TRIPOS>ATOM
      1 C18        -46.0300   -30.5660     1.9300 c6         1 RBB       0.168800
      2 C16        -43.8830   -29.9660     6.1280 ca         1 RBB       0.181900
      3 C14        -46.0740   -30.2680     6.2800 ca         1 RBB       0.194500
      4 C12        -48.3140   -31.7750     3.7690 ca         1 RBB      -0.048000
      5 C11        -49.6420   -32.1070     4.0060 ca         1 RBB      -0.135000
      6 C10        -50.2560   -31.8220     5.2310 ca         1 RBB      -0.096000
      7 C19        -45.6480   -29.7740     0.6690 c6         1 RBB       0.180300
      8 C01        -42.9420   -28.1350     2.4120 c3         1 RBB      -0.089600
      9 C02        -43.4440   -29.2000     1.4480 c6         1 RBB       0.150000
     10 C03        -43.6060   -30.5740     2.1380 c6         1 RBB       0.197800
     11 C05        -44.9880   -30.5430     4.1720 ca         1 RBB       0.458900
     12 C06        -46.1900   -30.6750     4.9260 cp         1 RBB      -0.224000
     13 C07        -47.5670   -31.1320     4.7640 cp         1 RBB      -0.014000
     14 C08        -48.2090   -30.8990     6.0130 ca         1 RBB      -0.022200
     15 C09        -49.5390   -31.2190     6.2550 ca         1 RBB      -0.140000
     16 C21        -46.8590   -29.1620    -0.0270 c3         1 RBB      -0.201400
     17 C22        -47.5320   -28.0140     0.7550 c          1 RBB       0.717000
     18 C25        -42.5150   -29.3340     0.2450 c3         1 RBB      -0.089600
     19 N04        -44.8850   -30.6660     2.8280 nh         1 RBB      -0.752300
     20 N13        -47.2890   -30.3600     6.8910 na         1 RBB      -0.337300
     21 N15        -44.9570   -29.8930     6.9110 nb         1 RBB      -0.273000
     22 N17        -43.8410   -30.2610     4.8390 nb         1 RBB      -0.318000
     23 O20        -44.7420   -28.7300     1.0090 os         1 RBB      -0.419000
     24 O23        -47.4350   -26.8590     0.2690 o          1 RBB      -0.732500
     25 O24        -48.1360   -28.3180     1.8190 o          1 RBB      -0.732500
     26 H182       -46.8370   -30.0450     2.4350 h1         1 RBB       0.081200
     27 H181       -46.3720   -31.5560     1.6170 h1         1 RBB       0.081200
     28 H111       -50.2080   -32.6020     3.2280 ha         1 RBB       0.106000
     29 H101       -51.2930   -32.0890     5.3880 ha         1 RBB       0.100000
     30 H191       -45.1630   -30.4500    -0.0440 h1         1 RBB      -0.006300
     31 H013       -41.9330   -28.3730     2.7530 hc         1 RBB       0.038200
     32 H012       -42.9200   -27.1670     1.9080 hc         1 RBB       0.038200
     33 H011       -43.5940   -28.0640     3.2820 hc         1 RBB       0.038200
     34 H032       -43.5800   -31.3680     1.3880 h1         1 RBB       0.057700
     35 H031       -42.7950   -30.7380     2.8370 h1         1 RBB       0.057700
     36 H091       -49.9880   -31.0160     7.2180 ha         1 RBB       0.104000
     37 H212       -47.5910   -29.9590    -0.1870 hc         1 RBB       0.031200
     38 H211       -46.5420   -28.7940    -1.0030 hc         1 RBB       0.031200
     39 H252       -41.5450   -29.7280     0.5550 hc         1 RBB       0.038200
     40 H251       -42.9360   -30.0150    -0.4970 hc         1 RBB       0.038200
     41 H253       -42.3610   -28.3600    -0.2210 hc         1 RBB       0.038200
     42 H131       -47.4500   -30.1700     7.8670 hn         1 RBB       0.353000
     43 H161       -42.9290   -29.7430     6.5970 h5         1 RBB       0.030100
     44 H121       -47.8760   -32.0350     2.8200 ha         1 RBB       0.120000
@<TRIPOS>BOND
     1     1     7 1   
     2     1    19 1   
     3     1    26 1   
     4     1    27 1   
     5     2    21 ar  
     6     2    22 ar  
     7     2    43 1   
     8     3    12 ar  
     9     3    20 1   
    10     3    21 ar  
    11     4     5 ar  
    12     4    13 ar  
    13     4    44 1   
    14     5     6 ar  
    15     5    28 1   
    16     6    15 ar  
    17     6    29 1   
    18     7    16 1   
    19     7    23 1   
    20     7    30 1   
    21     8     9 1   
    22     8    31 1   
    23     8    32 1   
    24     8    33 1   
    25     9    10 1   
    26     9    18 1   
    27     9    23 1   
    28    10    19 1   
    29    10    34 1   
    30    10    35 1   
    31    11    12 ar  
    32    11    19 1   
    33    11    22 ar  
    34    12    13 1   
    35    13    14 ar  
    36    14    15 ar  
    37    14    20 1   
    38    15    36 1   
    39    16    17 1   
    40    16    37 1   
    41    16    38 1   
    42    17    24 1   
    43    17    25 1   
    44    18    39 1   
    45    18    40 1   
    46    18    41 1   
    47    20    42 1   
@<TRIPOS>SUBSTRUCTURE
     1 RBB         1 TEMP              0 ****  ****    0 ROOT
