@<TRIPOS>MOLECULE
RBE
   37    39     1     0     0
SMALL
No Charge or Current Charge


@<TRIPOS>ATOM
      1 C1           3.2880     0.2270     0.7470 c5         1 RBE       0.127300
      2 C2           1.7760     0.5470     0.8820 c6         1 RBE      -0.229700
      3 C3           0.8960    -0.5840     0.2930 c6         1 RBE       0.198300
      4 C4           1.4010    -1.0320    -1.1050 c6         1 RBE      -0.118400
      5 C5           2.9360    -1.2320    -1.1350 c5         1 RBE       0.125300
      6 C6           3.5110    -2.1380    -0.0100 c5         1 RBE      -0.104400
      7 C7           3.7260    -1.1870     1.2260 c5         1 RBE      -0.108400
      8 C9          -2.8640    -0.4060    -0.0110 ca         1 RBE      -0.150600
      9 C10         -4.0130    -1.2090    -0.1920 ca         1 RBE      -0.049500
     10 C11         -5.2890    -0.6240    -0.2700 ca         1 RBE      -0.131000
     11 C12         -5.4340     0.7690    -0.1690 ca         1 RBE      -0.080000
     12 C13         -4.3000     1.5770     0.0110 ca         1 RBE      -0.131000
     13 C14         -3.0210     0.9970     0.0900 ca         1 RBE      -0.049500
     14 C15          1.3970     1.9250     0.3080 c          1 RBE       0.729000
     15 N1           3.5820     0.0740    -0.7260 ny         1 RBE      -0.885000
     16 O1          -0.4770    -0.1570     0.2420 os         1 RBE      -0.414100
     17 O2          -1.3340    -2.2640    -0.0010 o          1 RBE      -0.510000
     18 O3           1.8450     2.2170    -0.7950 o          1 RBE      -0.657500
     19 O4           1.0400     2.7720     1.1140 o          1 RBE      -0.657500
     20 H1           3.8900     1.0370     1.1750 hx         1 RBE       0.100700
     21 H2           1.5260     0.5860     1.9500 hc         1 RBE       0.093700
     22 H3           0.9590    -1.4440     0.9770 h1         1 RBE       0.052700
     23 H41          1.1170    -0.2890    -1.8610 hc         1 RBE       0.089700
     24 H42          0.9150    -1.9710    -1.3970 hc         1 RBE       0.089700
     25 H5           3.2670    -1.5210    -2.1390 hx         1 RBE       0.088700
     26 H61          4.4660    -2.5740    -0.3240 hc         1 RBE       0.070700
     27 H62          2.8480    -2.9800     0.2190 hc         1 RBE       0.070700
     28 H71          4.7810    -1.1790     1.5190 hc         1 RBE       0.071200
     29 H72          3.1640    -1.5130     2.1090 hc         1 RBE       0.071200
     30 H10         -3.9210    -2.2910    -0.2720 ha         1 RBE       0.144000
     31 H11         -6.1660    -1.2520    -0.4100 ha         1 RBE       0.119000
     32 H12         -6.4220     1.2210    -0.2300 ha         1 RBE       0.113000
     33 H13         -4.4100     2.6560     0.0890 ha         1 RBE       0.119000
     34 H14         -2.1590     1.6470     0.2300 ha         1 RBE       0.144000
     35 HN11         3.1900     0.8940    -1.2470 hn         1 RBE       0.524000
     36 HN12         4.6020     0.0970    -0.9330 hn         1 RBE       0.524000
     37 C8          -1.5000    -1.0530     0.0700 c          1 RBE       0.614700
@<TRIPOS>BOND
     1     1     2 1   
     2     1     7 1   
     3     1    15 1   
     4     1    20 1   
     5     2     3 1   
     6     2    14 1   
     7     2    21 1   
     8     3     4 1   
     9     3    16 1   
    10     3    22 1   
    11     4     5 1   
    12     4    23 1   
    13     4    24 1   
    14     5     6 1   
    15     5    15 1   
    16     5    25 1   
    17     6     7 1   
    18     6    26 1   
    19     6    27 1   
    20     7    28 1   
    21     7    29 1   
    22     8     9 ar  
    23     8    13 ar  
    24     8    37 1   
    25     9    10 ar  
    26     9    30 1   
    27    10    11 ar  
    28    10    31 1   
    29    11    12 ar  
    30    11    32 1   
    31    12    13 ar  
    32    12    33 1   
    33    13    34 1   
    34    14    18 1   
    35    14    19 1   
    36    15    35 1   
    37    15    36 1   
    38    16    37 1   
    39    17    37 2   
@<TRIPOS>SUBSTRUCTURE
     1 RBE         1 TEMP              0 ****  ****    0 ROOT
