@<TRIPOS>MOLECULE
RBE
   37    39     1     0     0
SMALL
bcc


@<TRIPOS>ATOM
      1 C1           3.2000     0.2030     0.7420 c5         1 RBE       0.155500
      2 C2           1.7010     0.4980     0.8810 c6         1 RBE      -0.229700
      3 C3           0.9040    -0.6580     0.2570 c6         1 RBE       0.175100
      4 C4           1.4220    -1.0850    -1.1170 c6         1 RBE      -0.118400
      5 C5           2.9430    -1.1860    -1.1150 c5         1 RBE       0.153500
      6 C6           3.4910    -2.0980    -0.0130 c5         1 RBE      -0.104400
      7 C7           3.6140    -1.1880     1.2290 c5         1 RBE      -0.108400
      8 C9          -2.7630    -0.3840     0.0310 ca         1 RBE      -0.150600
      9 C10         -3.8990    -1.1620    -0.1850 ca         1 RBE      -0.067500
     10 C11         -5.1460    -0.5650    -0.2790 ca         1 RBE      -0.149000
     11 C12         -5.2670     0.8130    -0.1510 ca         1 RBE      -0.098000
     12 C13         -4.1380     1.5920     0.0700 ca         1 RBE      -0.149000
     13 C14         -2.8870     1.0000     0.1590 ca         1 RBE      -0.067500
     14 C15          1.3310     1.8550     0.2320 c          1 RBE       0.939600
     15 N1           3.4730     0.1490    -0.7220 ny         1 RBE      -0.831000
     16 O1          -0.4470    -0.1990     0.1680 os         1 RBE      -0.390900
     17 O2          -1.3040    -2.2640     0.1180 o          1 RBE      -0.559000
     18 O3           1.7680     2.0360    -0.9440 o          1 RBE      -0.762800
     19 O4           0.6520     2.6510     0.8800 o          1 RBE      -0.762800
     20 H1           3.7890     1.0020     1.1880 hx         1 RBE       0.100700
     21 H2           1.4660     0.5390     1.9470 hc         1 RBE       0.093700
     22 H3           0.9440    -1.5150     0.9350 h1         1 RBE       0.052700
     23 H41          1.1030    -0.3730    -1.8810 hc         1 RBE       0.089700
     24 H42          1.0130    -2.0580    -1.3880 hc         1 RBE       0.089700
     25 H5           3.3100    -1.4440    -2.1060 hx         1 RBE       0.088700
     26 H61          4.4680    -2.4840    -0.3020 hc         1 RBE       0.070700
     27 H62          2.8410    -2.9560     0.1500 hc         1 RBE       0.070700
     28 H71          4.6410    -1.1670     1.5920 hc         1 RBE       0.071200
     29 H72          2.9880    -1.5140     2.0600 hc         1 RBE       0.071200
     30 H10         -3.8070    -2.2350    -0.2850 ha         1 RBE       0.162000
     31 H11         -6.0230    -1.1740    -0.4540 ha         1 RBE       0.137000
     32 H12         -6.2400     1.2810    -0.2250 ha         1 RBE       0.131000
     33 H13         -4.2310     2.6650     0.1720 ha         1 RBE       0.137000
     34 H14         -2.0170     1.6190     0.3360 ha         1 RBE       0.162000
     35 HN11         2.9080     0.9590    -1.1330 hn         1 RBE       0.468800
     36 HN12         4.4630     0.2530    -0.9360 hn         1 RBE       0.468800
     37 C8          -1.4470    -1.0650     0.1140 c          1 RBE       0.663700
@<TRIPOS>BOND
     1     1     2 1   
     2     1     7 1   
     3     1    15 1   
     4     1    20 1   
     5     2     3 1   
     6     2    14 1   
     7     2    21 1   
     8     3     4 1   
     9     3    16 1   
    10     3    22 1   
    11     4     5 1   
    12     4    23 1   
    13     4    24 1   
    14     5     6 1   
    15     5    15 1   
    16     5    25 1   
    17     6     7 1   
    18     6    26 1   
    19     6    27 1   
    20     7    28 1   
    21     7    29 1   
    22     8     9 ar  
    23     8    13 ar  
    24     8    37 1   
    25     9    10 ar  
    26     9    30 1   
    27    10    11 ar  
    28    10    31 1   
    29    11    12 ar  
    30    11    32 1   
    31    12    13 ar  
    32    12    33 1   
    33    13    34 1   
    34    14    18 1   
    35    14    19 1   
    36    15    35 1   
    37    15    36 1   
    38    16    37 1   
    39    17    37 2   
@<TRIPOS>SUBSTRUCTURE
     1 RBE         1 TEMP              0 ****  ****    0 ROOT
