@<TRIPOS>MOLECULE
RBF
   47    49     1     0     0
SMALL
abcg2


@<TRIPOS>ATOM
      1 N1           0.4880    -2.3120     0.3380 nc         1 RBF      -0.471400
      2 C2           1.0720    -3.4930     0.0100 c          1 RBF       0.735400
      3 O2           0.5100    -4.5620     0.1450 o          1 RBF      -0.511000
      4 N3           2.3710    -3.4800    -0.5040 ns         1 RBF      -0.497500
      5 C4           3.1490    -2.3830    -0.7210 c          1 RBF       0.484500
      6 O4           4.2710    -2.4410    -1.1730 o          1 RBF      -0.488000
      7 C4A          2.4840    -1.1140    -0.3470 cd         1 RBF       0.213500
      8 N5           3.1280    -0.0110    -0.5120 nc         1 RBF      -0.518000
      9 C5A          2.5250     1.1470    -0.1670 ca         1 RBF       0.161000
     10 C6           3.2330     2.3480    -0.3420 ca         1 RBF      -0.014000
     11 C7           2.6920     3.5600    -0.0040 ca         1 RBF      -0.106300
     12 C7M          3.4670     4.8300    -0.1860 c3         1 RBF      -0.044800
     13 C8           1.3790     3.5830     0.5330 ca         1 RBF      -0.001300
     14 C8M          0.7570     4.8870     0.9230 c3         1 RBF      -0.060800
     15 C9           0.6680     2.4120     0.7050 ca         1 RBF      -0.166000
     16 C9A          1.2170     1.1710     0.3630 ca         1 RBF       0.023000
     17 N10          0.5600    -0.0260     0.5340 na         1 RBF      -0.004000
     18 C10          1.1470    -1.1980     0.1810 cd         1 RBF       0.118000
     19 C1          -0.7970    -0.0850     1.0790 c3         1 RBF       0.033600
     20 C11         -1.8380    -0.1400    -0.0490 c3         1 RBF       0.124300
     21 O1          -1.5980     0.8500    -1.0180 oh         1 RBF      -0.696000
     22 C3          -3.2620    -0.0440     0.5350 c3         1 RBF       0.104300
     23 O3          -3.3600    -0.6390     1.8090 oh         1 RBF      -0.715000
     24 C12         -4.3360    -0.6310    -0.4020 c3         1 RBF       0.139300
     25 O6          -4.1120    -0.3610    -1.7620 oh         1 RBF      -0.679000
     26 C5          -5.7190    -0.1820     0.0460 c3         1 RBF       0.131600
     27 O5          -6.6890    -0.8880    -0.6890 oh         1 RBF      -0.703000
     28 HN3          2.7720    -4.3810    -0.7320 hn         1 RBF       0.340500
     29 HC6          4.2330     2.2800    -0.7530 ha         1 RBF       0.144000
     30 HC71         2.9610     5.5140    -0.8700 hc         1 RBF       0.047700
     31 HC72         3.5920     5.3600     0.7600 hc         1 RBF       0.047700
     32 HC73         4.4570     4.6290    -0.5890 hc         1 RBF       0.047700
     33 HC81         0.7510     5.5880     0.0860 hc         1 RBF       0.052367
     34 HC82        -0.2680     4.7590     1.2640 hc         1 RBF       0.052367
     35 HC83         1.3240     5.3610     1.7260 hc         1 RBF       0.052367
     36 HC9         -0.3230     2.4870     1.1270 ha         1 RBF       0.120000
     37 HC11        -0.8570    -0.9750     1.6970 h1         1 RBF       0.084700
     38 HC12        -0.9460     0.7680     1.7380 h1         1 RBF       0.084700
     39 HC2         -1.7180    -1.0960    -0.5670 h1         1 RBF       0.117700
     40 HO2         -1.8580     1.7110    -0.6720 ho         1 RBF       0.492000
     41 HC3         -3.4720     1.0220     0.7040 h1         1 RBF       0.059700
     42 HO3         -3.3150    -1.5970     1.7130 ho         1 RBF       0.519000
     43 HC4         -4.2760    -1.7240    -0.3150 h1         1 RBF       0.090700
     44 HO4         -4.0900     0.5930    -1.8950 ho         1 RBF       0.500000
     45 HC51        -5.8200    -0.3550     1.1230 h1         1 RBF       0.024200
     46 HC52        -5.8000     0.9050    -0.1110 h1         1 RBF       0.024200
     47 HO5         -7.5560    -0.6180    -0.3740 ho         1 RBF       0.505000
@<TRIPOS>BOND
     1     1     2 1   
     2     1    18 2   
     3     2     3 2   
     4     2     4 1   
     5     4     5 1   
     6     4    28 1   
     7     5     6 2   
     8     5     7 1   
     9     7     8 2   
    10     7    18 1   
    11     8     9 1   
    12     9    10 ar  
    13     9    16 ar  
    14    10    11 ar  
    15    10    29 1   
    16    11    12 1   
    17    11    13 ar  
    18    12    30 1   
    19    12    31 1   
    20    12    32 1   
    21    13    14 1   
    22    13    15 ar  
    23    14    33 1   
    24    14    34 1   
    25    14    35 1   
    26    15    16 ar  
    27    15    36 1   
    28    16    17 1   
    29    17    18 1   
    30    17    19 1   
    31    19    20 1   
    32    19    37 1   
    33    19    38 1   
    34    20    21 1   
    35    20    22 1   
    36    20    39 1   
    37    21    40 1   
    38    22    23 1   
    39    22    24 1   
    40    22    41 1   
    41    23    42 1   
    42    24    25 1   
    43    24    26 1   
    44    24    43 1   
    45    25    44 1   
    46    26    27 1   
    47    26    45 1   
    48    26    46 1   
    49    27    47 1   
@<TRIPOS>SUBSTRUCTURE
     1 RBF         1 TEMP              0 ****  ****    0 ROOT
