@<TRIPOS>MOLECULE
RBF
   47    49     1     0     0
SMALL
No Charge or Current Charge


@<TRIPOS>ATOM
      1 N1           0.6150    -2.2870     0.1540 nc         1 RBF      -0.471400
      2 C2           1.1990    -3.5050    -0.1230 c          1 RBF       0.735400
      3 O2           0.5710    -4.5480    -0.1010 o          1 RBF      -0.511000
      4 N3           2.5240    -3.4980    -0.4250 ns         1 RBF      -0.497500
      5 C4           3.3670    -2.4230    -0.4940 c          1 RBF       0.484500
      6 O4           4.5480    -2.5740    -0.7790 o          1 RBF      -0.488000
      7 C4A          2.6970    -1.1130    -0.1940 cd         1 RBF       0.213500
      8 N5           3.4270     0.0100    -0.2310 nc         1 RBF      -0.518000
      9 C5A          2.6710     1.1660     0.0090 ca         1 RBF       0.161000
     10 C6           3.3740     2.3820    -0.0890 ca         1 RBF      -0.014000
     11 C7           2.7430     3.6260     0.0760 ca         1 RBF      -0.106300
     12 C7M          3.5630     4.9090    -0.0490 c3         1 RBF      -0.044800
     13 C8           1.3610     3.6620     0.3360 ca         1 RBF      -0.001300
     14 C8M          0.6230     4.9880     0.5010 c3         1 RBF      -0.060800
     15 C9           0.6480     2.4550     0.4470 ca         1 RBF      -0.166000
     16 C9A          1.2810     1.1910     0.3100 ca         1 RBF       0.023000
     17 N10          0.5390    -0.0040     0.4630 na         1 RBF      -0.004000
     18 C10          1.2890    -1.1400     0.1270 cd         1 RBF       0.118000
     19 C1          -0.8420    -0.0360     1.0290 c3         1 RBF       0.033600
     20 C11         -1.9730    -0.1820    -0.0300 c3         1 RBF       0.124300
     21 O1          -1.8970     0.9100    -0.9760 oh         1 RBF      -0.696000
     22 C3          -3.3960    -0.2290     0.6320 c3         1 RBF       0.104300
     23 O3          -3.4530    -1.3150     1.5840 oh         1 RBF      -0.715000
     24 C12         -4.5840    -0.3410    -0.3900 c3         1 RBF       0.139300
     25 O6          -4.5150     0.7590    -1.3180 oh         1 RBF      -0.679000
     26 C5          -5.9840    -0.3610     0.3060 c3         1 RBF       0.131600
     27 O5          -7.0440    -0.6000    -0.6410 oh         1 RBF      -0.703000
     28 HN3          2.9280    -4.4000    -0.6210 hn         1 RBF       0.340500
     29 HC6          4.4380     2.3500    -0.3110 ha         1 RBF       0.144000
     30 HC71         3.2010     5.5310    -0.8760 hc         1 RBF       0.047700
     31 HC72         3.5080     5.5040     0.8700 hc         1 RBF       0.047700
     32 HC73         4.6230     4.7000    -0.2380 hc         1 RBF       0.047700
     33 HC81         0.7130     5.6050    -0.4010 hc         1 RBF       0.052367
     34 HC82        -0.4470     4.8420     0.6880 hc         1 RBF       0.052367
     35 HC83         1.0250     5.5610     1.3450 hc         1 RBF       0.052367
     36 HC9         -0.4180     2.5290     0.6360 ha         1 RBF       0.120000
     37 HC11        -0.8960    -0.8910     1.7140 h1         1 RBF       0.084700
     38 HC12        -1.0250     0.8400     1.6590 h1         1 RBF       0.084700
     39 HC2         -1.8170    -1.1370    -0.5560 h1         1 RBF       0.117700
     40 HO2         -0.9990     0.8940    -1.3830 ho         1 RBF       0.492000
     41 HC3         -3.5290     0.7180     1.1740 h1         1 RBF       0.059700
     42 HO3         -3.4130    -2.1690     1.0920 ho         1 RBF       0.519000
     43 HC4         -4.4680    -1.2900    -0.9340 h1         1 RBF       0.090700
     44 HO4         -3.5440     0.9930    -1.3470 ho         1 RBF       0.500000
     45 HC51        -5.9970    -1.1470     1.0720 h1         1 RBF       0.024200
     46 HC52        -6.1400     0.5980     0.8200 h1         1 RBF       0.024200
     47 HO5         -7.8950    -0.5080    -0.1510 ho         1 RBF       0.505000
@<TRIPOS>BOND
     1     1     2 1   
     2     1    18 2   
     3     2     3 2   
     4     2     4 1   
     5     4     5 1   
     6     4    28 1   
     7     5     6 2   
     8     5     7 1   
     9     7     8 2   
    10     7    18 1   
    11     8     9 1   
    12     9    10 ar  
    13     9    16 ar  
    14    10    11 ar  
    15    10    29 1   
    16    11    12 1   
    17    11    13 ar  
    18    12    30 1   
    19    12    31 1   
    20    12    32 1   
    21    13    14 1   
    22    13    15 ar  
    23    14    33 1   
    24    14    34 1   
    25    14    35 1   
    26    15    16 ar  
    27    15    36 1   
    28    16    17 1   
    29    17    18 1   
    30    17    19 1   
    31    19    20 1   
    32    19    37 1   
    33    19    38 1   
    34    20    21 1   
    35    20    22 1   
    36    20    39 1   
    37    21    40 1   
    38    22    23 1   
    39    22    24 1   
    40    22    41 1   
    41    23    42 1   
    42    24    25 1   
    43    24    26 1   
    44    24    43 1   
    45    25    44 1   
    46    26    27 1   
    47    26    45 1   
    48    26    46 1   
    49    27    47 1   
@<TRIPOS>SUBSTRUCTURE
     1 RBF         1 TEMP              0 ****  ****    0 ROOT
