@<TRIPOS>MOLECULE
RBJ
   21    21     1     0     0
SMALL
abcg2


@<TRIPOS>ATOM
      1 C4          24.9490    -0.8040    59.9830 ca         1 RBJ      -0.175500
      2 C5          25.7930     0.3020    60.0400 ca         1 RBJ       0.140100
      3 C6          25.3550     1.4640    60.6730 ca         1 RBJ      -0.175500
      4 C7          24.0880     1.5090    61.2340 ca         1 RBJ      -0.063500
      5 O           27.0130     0.1950    59.4730 oh         1 RBJ      -0.534100
      6 C3          23.6850    -0.7370    60.5510 ca         1 RBJ      -0.063500
      7 C2          23.2290     0.4140    61.1870 ca         1 RBJ      -0.162300
      8 C1          21.8330     0.5060    61.7590 c3         1 RBJ       0.207100
      9 N           20.8800     1.2670    60.9680 n7         1 RBJ      -0.856400
     10 C           20.6800     0.7500    59.6300 c3         1 RBJ       0.143100
     11 H1          25.2840    -1.7100    59.4930 ha         1 RBJ       0.121000
     12 H2          26.0030     2.3320    60.7310 ha         1 RBJ       0.121000
     13 H3          23.7670     2.4220    61.7240 ha         1 RBJ       0.112000
     14 H4          27.4980     1.0230    59.5600 ho         1 RBJ       0.464000
     15 H5          23.0400    -1.6070    60.4980 ha         1 RBJ       0.112000
     16 H6          21.8750     0.9600    62.7520 h1         1 RBJ       0.056700
     17 H7          21.4310    -0.5020    61.8950 h1         1 RBJ       0.056700
     18 H8          21.1830     2.2320    60.9150 hn         1 RBJ       0.407000
     19 H10         19.9270     1.3500    59.1170 h1         1 RBJ       0.030367
     20 H11         21.5790     0.7330    59.0010 h1         1 RBJ       0.030367
     21 H12         20.3020    -0.2730    59.6860 h1         1 RBJ       0.030367
@<TRIPOS>BOND
     1     1     2 ar  
     2     1     6 ar  
     3     1    11 1   
     4     2     3 ar  
     5     2     5 1   
     6     3     4 ar  
     7     3    12 1   
     8     4     7 ar  
     9     4    13 1   
    10     5    14 1   
    11     6     7 ar  
    12     6    15 1   
    13     7     8 1   
    14     8     9 1   
    15     8    16 1   
    16     8    17 1   
    17     9    10 1   
    18     9    18 1   
    19    10    19 1   
    20    10    20 1   
    21    10    21 1   
@<TRIPOS>SUBSTRUCTURE
     1 RBJ         1 TEMP              0 ****  ****    0 ROOT
