@<TRIPOS>MOLECULE
RBJ
   21    21     1     0     0
SMALL
No Charge or Current Charge


@<TRIPOS>ATOM
      1 C4          24.9330    -0.7880    59.9320 ca         1 RBJ      -0.175500
      2 C5          25.8090     0.3020    60.0400 ca         1 RBJ       0.140100
      3 C6          25.4020     1.4650    60.7130 ca         1 RBJ      -0.175500
      4 C7          24.1160     1.5370    61.2790 ca         1 RBJ      -0.063500
      5 O           27.0530     0.2250    59.4900 oh         1 RBJ      -0.534100
      6 C3          23.6480    -0.7200    60.4970 ca         1 RBJ      -0.063500
      7 C2          23.2310     0.4450    61.1720 ca         1 RBJ      -0.162300
      8 C1          21.8400     0.5230    61.7880 c3         1 RBJ       0.207100
      9 N           20.9200     1.2950    60.9280 n7         1 RBJ      -0.856400
     10 C           20.5890     0.6840    59.6250 c3         1 RBJ       0.143100
     11 H1          25.2490    -1.6890    59.4120 ha         1 RBJ       0.121000
     12 H2          26.0740     2.3150    60.8030 ha         1 RBJ       0.121000
     13 H3          23.8080     2.4410    61.8010 ha         1 RBJ       0.112000
     14 H4          27.5200     1.0700    59.6610 ho         1 RBJ       0.464000
     15 H5          22.9750    -1.5710    60.4080 ha         1 RBJ       0.112000
     16 H6          21.9220     0.9990    62.7760 h1         1 RBJ       0.056700
     17 H7          21.4530    -0.4930    61.9570 h1         1 RBJ       0.056700
     18 H8          21.3540     2.2100    60.7530 hn         1 RBJ       0.407000
     19 H10         19.8720     1.3110    59.0770 h1         1 RBJ       0.030367
     20 H11         21.4860     0.5720    59.0000 h1         1 RBJ       0.030367
     21 H12         20.1380    -0.3080    59.7600 h1         1 RBJ       0.030367
@<TRIPOS>BOND
     1     1     2 ar  
     2     1     6 ar  
     3     1    11 1   
     4     2     3 ar  
     5     2     5 1   
     6     3     4 ar  
     7     3    12 1   
     8     4     7 ar  
     9     4    13 1   
    10     5    14 1   
    11     6     7 ar  
    12     6    15 1   
    13     7     8 1   
    14     8     9 1   
    15     8    16 1   
    16     8    17 1   
    17     9    10 1   
    18     9    18 1   
    19    10    19 1   
    20    10    20 1   
    21    10    21 1   
@<TRIPOS>SUBSTRUCTURE
     1 RBJ         1 TEMP              0 ****  ****    0 ROOT
