@<TRIPOS>MOLECULE
RBL
   20    19     1     0     0
SMALL
abcg2


@<TRIPOS>ATOM
      1 C2           2.1480     0.6860     0.5960 c3         1 RBL       0.070600
      2 C3           1.2840    -0.2580    -0.1820 c          1 RBL       0.552100
      3 C5          -0.0720    -0.6040     0.4300 c3         1 RBL       0.036300
      4 O13         -0.2710    -1.9920     0.4260 oh         1 RBL      -0.701000
      5 C6          -1.1720     0.1470    -0.3410 c3         1 RBL       0.137300
      6 O14         -0.8180     1.5010    -0.5090 oh         1 RBL      -0.637000
      7 C7          -2.5200    -0.0250     0.3350 c3         1 RBL       0.131600
      8 O8          -3.5130     0.5480    -0.4800 oh         1 RBL      -0.707000
      9 O4           1.6260    -0.7630    -1.2240 o          1 RBL      -0.481100
     10 O1           3.3110     0.9750    -0.1150 oh         1 RBL      -0.624000
     11 H2           1.5480     1.5760     0.8330 h1         1 RBL       0.037200
     12 H2A          2.3430     0.1990     1.5660 h1         1 RBL       0.037200
     13 H5          -0.0920    -0.2930     1.4810 h1         1 RBL       0.076700
     14 HO13        -0.1790    -2.3110    -0.4790 ho         1 RBL       0.523000
     15 H6          -1.2240    -0.2770    -1.3510 h1         1 RBL       0.098700
     16 HO14        -1.0010     1.9790     0.3070 ho         1 RBL       0.439000
     17 H7          -2.6960    -1.0930     0.5040 h1         1 RBL       0.028700
     18 H7A         -2.4800     0.4520     1.3270 h1         1 RBL       0.028700
     19 HO8         -4.3630     0.4120    -0.0530 ho         1 RBL       0.507000
     20 HO1          3.8390     1.5820     0.4120 ho         1 RBL       0.447000
@<TRIPOS>BOND
     1     1     2 1   
     2     1    10 1   
     3     1    11 1   
     4     1    12 1   
     5     2     3 1   
     6     2     9 2   
     7     3     4 1   
     8     3     5 1   
     9     3    13 1   
    10     4    14 1   
    11     5     6 1   
    12     5     7 1   
    13     5    15 1   
    14     6    16 1   
    15     7     8 1   
    16     7    17 1   
    17     7    18 1   
    18     8    19 1   
    19    10    20 1   
@<TRIPOS>SUBSTRUCTURE
     1 RBL         1 TEMP              0 ****  ****    0 ROOT
