@<TRIPOS>MOLECULE
RBL
   20    19     1     0     0
SMALL
No Charge or Current Charge


@<TRIPOS>ATOM
      1 C2           2.1410     0.8480     0.3390 c3         1 RBL       0.070600
      2 C3           1.3510    -0.3150    -0.3350 c          1 RBL       0.552100
      3 C5          -0.0150    -0.7050     0.3130 c3         1 RBL       0.036300
      4 O13         -0.3260    -2.1190     0.1300 oh         1 RBL      -0.701000
      5 C6          -1.1740     0.1780    -0.2350 c3         1 RBL       0.137300
      6 O14         -0.8640     1.5670    -0.0610 oh         1 RBL      -0.637000
      7 C7          -2.5330    -0.0920     0.4670 c3         1 RBL       0.131600
      8 O8          -3.5120     0.8660     0.0210 oh         1 RBL      -0.707000
      9 O4           1.8420    -1.0100    -1.2230 o          1 RBL      -0.481100
     10 O1           3.5500     0.5600     0.5220 oh         1 RBL      -0.624000
     11 H2           2.0080     1.7390    -0.2890 h1         1 RBL       0.037200
     12 H2A          1.6740     1.0630     1.3090 h1         1 RBL       0.037200
     13 H5           0.0800    -0.4940     1.3870 h1         1 RBL       0.076700
     14 HO13         0.1980    -2.4400    -0.6460 ho         1 RBL       0.523000
     15 H6          -1.3000    -0.0460    -1.3050 h1         1 RBL       0.098700
     16 HO14        -1.7470     2.0080    -0.0530 ho         1 RBL       0.439000
     17 H7          -2.8650    -1.1120     0.2340 h1         1 RBL       0.028700
     18 H7A         -2.4010    -0.0240     1.5560 h1         1 RBL       0.028700
     19 HO8         -4.3740     0.6130     0.4300 ho         1 RBL       0.507000
     20 HO1          3.9650     1.3570     0.9240 ho         1 RBL       0.447000
@<TRIPOS>BOND
     1     1     2 1   
     2     1    10 1   
     3     1    11 1   
     4     1    12 1   
     5     2     3 1   
     6     2     9 2   
     7     3     4 1   
     8     3     5 1   
     9     3    13 1   
    10     4    14 1   
    11     5     6 1   
    12     5     7 1   
    13     5    15 1   
    14     6    16 1   
    15     7     8 1   
    16     7    17 1   
    17     7    18 1   
    18     8    19 1   
    19    10    20 1   
@<TRIPOS>SUBSTRUCTURE
     1 RBL         1 TEMP              0 ****  ****    0 ROOT
