@<TRIPOS>MOLECULE
RBM
   55    58     1     0     0
SMALL
No Charge or Current Charge


@<TRIPOS>ATOM
      1 N1         -16.7400    10.7680    30.2740 n1         1 RBM      -0.469000
      2 N3         -20.2120     5.4370    27.7110 ns         1 RBM      -0.157000
      3 C4         -22.7330     6.3000    28.7350 c6         1 RBM       0.225800
      4 C5         -22.4620     4.7780    28.6030 c6         1 RBM      -0.097400
      5 C6         -21.1440     4.4230    27.8740 c          1 RBM       0.608100
      6 C7         -18.8750     5.3820    27.2260 ca         1 RBM      -0.087000
      7 C8         -18.0700     4.2400    27.4520 ca         1 RBM       0.324900
      8 C10        -16.9500     6.3940    26.1570 ca         1 RBM      -0.093000
      9 C13        -18.4170     8.7230    25.5840 ca         1 RBM      -0.081000
     10 C15        -18.3020     6.4830    26.5510 ca         1 RBM      -0.038000
     11 C17        -22.6080     2.6980    30.0770 ca         1 RBM      -0.084000
     12 C20        -22.1510     4.2070    32.3990 ca         1 RBM      -0.100000
     13 C21        -22.2040     4.8510    31.1470 ca         1 RBM      -0.064300
     14 C22        -22.0620     6.3740    31.0820 c6         1 RBM       0.258100
     15 C18        -22.5510     2.0630    31.3280 ca         1 RBM       0.127000
     16 C19        -22.3210     2.8150    32.4890 ca         1 RBM      -0.089000
     17 N2         -21.8220     6.9170    29.7210 n3         1 RBM      -0.793500
     18 S          -21.8010     8.6240    29.6740 s6         1 RBM       1.354200
     19 O          -23.0410     9.0810    30.3030 o          1 RBM      -0.575500
     20 O1         -21.3900     9.0600    28.3420 o          1 RBM      -0.575500
     21 N          -20.4920     8.9040    30.7430 n3         1 RBM      -0.799500
     22 C1         -19.2040     8.2050    30.4670 c3         1 RBM       0.220800
     23 C2         -18.2810     8.8290    29.3900 c3         1 RBM      -0.060300
     24 C3         -17.4350     9.9140    29.8910 c1         1 RBM       0.304900
     25 C          -20.3710    10.3000    31.2070 c3         1 RBM       0.211100
     26 C16        -22.4320     4.0940    29.9780 ca         1 RBM      -0.049300
     27 O2         -20.9600     3.2960    27.4250 o          1 RBM      -0.565100
     28 C14        -19.0360     7.6500    26.2470 ca         1 RBM      -0.104000
     29 C12        -17.0650     8.6360    25.2120 ca         1 RBM      -0.107000
     30 C11        -16.3320     7.4710    25.4940 ca         1 RBM      -0.085000
     31 C9         -16.2320     5.2150    26.4350 ca         1 RBM       0.347900
     32 N4         -16.7750     4.1500    27.0690 nb         1 RBM      -0.648000
     33 H1         -20.4950     6.3370    28.0800 hn         1 RBM       0.155000
     34 H2         -22.6250     6.7650    27.7440 h1         1 RBM       0.067200
     35 H3         -23.7790     6.4540    29.0400 h1         1 RBM       0.067200
     36 H4         -23.2690     4.3130    28.0220 hc         1 RBM       0.076700
     37 H5         -18.4600     3.3770    27.9890 h4         1 RBM       0.040100
     38 H6         -18.9860     9.6220    25.3570 ha         1 RBM       0.124000
     39 H7         -22.7830     2.1020    29.1850 ha         1 RBM       0.130000
     40 H8         -21.9840     4.7860    33.3050 ha         1 RBM       0.121000
     41 H9         -21.2500     6.6660    31.7640 h1         1 RBM       0.067200
     42 H10        -22.9850     6.7990    31.5030 h1         1 RBM       0.067200
     43 H11        -22.2800     2.3200    33.4570 ha         1 RBM       0.134000
     44 H12        -19.3950     7.1660    30.1670 h1         1 RBM       0.078200
     45 H13        -18.6300     8.1250    31.4010 h1         1 RBM       0.078200
     46 H14        -18.8620     9.1990    28.5430 hc         1 RBM       0.093200
     47 H15        -17.6180     8.0480    29.0030 hc         1 RBM       0.093200
     48 H16        -19.5910    10.3910    31.9730 h1         1 RBM       0.054367
     49 H17        -20.1200    10.9730    30.3760 h1         1 RBM       0.054367
     50 H18        -21.3120    10.6490    31.6530 h1         1 RBM       0.054367
     51 H19        -20.0860     7.7360    26.5140 ha         1 RBM       0.123000
     52 H20        -16.5880     9.4690    24.6990 ha         1 RBM       0.121000
     53 H21        -15.2870     7.4070    25.1940 ha         1 RBM       0.120000
     54 H22        -15.1870     5.1160    26.1400 h4         1 RBM       0.024100
     55 Cl         -22.7680     0.3210    31.4380 cl         1 RBM      -0.205000
@<TRIPOS>BOND
     1     1    24 3   
     2     2     5 1   
     3     2     6 1   
     4     2    33 1   
     5     3     4 1   
     6     3    17 1   
     7     3    34 1   
     8     3    35 1   
     9     4     5 1   
    10     4    26 1   
    11     4    36 1   
    12     5    27 2   
    13     6     7 ar  
    14     6    10 ar  
    15     7    32 ar  
    16     7    37 1   
    17     8    10 ar  
    18     8    30 ar  
    19     8    31 ar  
    20     9    28 ar  
    21     9    29 ar  
    22     9    38 1   
    23    10    28 ar  
    24    11    15 ar  
    25    11    26 ar  
    26    11    39 1   
    27    12    13 ar  
    28    12    16 ar  
    29    12    40 1   
    30    13    14 1   
    31    13    26 ar  
    32    14    17 1   
    33    14    41 1   
    34    14    42 1   
    35    15    16 ar  
    36    15    55 1   
    37    16    43 1   
    38    17    18 1   
    39    18    19 2   
    40    18    20 2   
    41    18    21 1   
    42    21    22 1   
    43    21    25 1   
    44    22    23 1   
    45    22    44 1   
    46    22    45 1   
    47    23    24 1   
    48    23    46 1   
    49    23    47 1   
    50    25    48 1   
    51    25    49 1   
    52    25    50 1   
    53    28    51 1   
    54    29    30 ar  
    55    29    52 1   
    56    30    53 1   
    57    31    32 ar  
    58    31    54 1   
@<TRIPOS>SUBSTRUCTURE
     1 RBM         1 TEMP              0 ****  ****    0 ROOT
