@<TRIPOS>MOLECULE
RBM
   55    58     1     0     0
SMALL
abcg2


@<TRIPOS>ATOM
      1 N1         -16.8450    10.5360    29.9730 n1         1 RBM      -0.469000
      2 N3         -20.0660     5.1300    27.3360 ns         1 RBM      -0.157000
      3 C4         -22.4830     6.3000    28.7340 c6         1 RBM       0.225800
      4 C5         -22.0150     4.8410    28.7660 c6         1 RBM      -0.097400
      5 C6         -20.4920     4.7750    28.5810 c          1 RBM       0.608100
      6 C7         -18.7230     5.3730    26.9810 ca         1 RBM      -0.087000
      7 C8         -17.7260     4.4900    27.3220 ca         1 RBM       0.324900
      8 C10        -17.0140     6.7610    25.9660 ca         1 RBM      -0.093000
      9 C13        -18.8970     8.6920    25.2540 ca         1 RBM      -0.081000
     10 C15        -18.3880     6.5630    26.2760 ca         1 RBM      -0.038000
     11 C17        -22.6140     2.8290    30.1470 ca         1 RBM      -0.084000
     12 C20        -22.9490     4.3850    32.4150 ca         1 RBM      -0.100000
     13 C21        -22.5880     4.9940    31.2130 ca         1 RBM      -0.064300
     14 C22        -22.4270     6.4950    31.1920 c6         1 RBM       0.258100
     15 C18        -22.9710     2.2490    31.3510 ca         1 RBM       0.127000
     16 C19        -23.1410     3.0150    32.4980 ca         1 RBM      -0.089000
     17 N2         -21.9120     6.9680    29.9050 n3         1 RBM      -0.793500
     18 S          -21.4830     8.5440    29.8220 s6         1 RBM       1.354200
     19 O          -22.4630     9.4070    30.4380 o          1 RBM      -0.575500
     20 O1         -21.1520     8.7960    28.4390 o          1 RBM      -0.575500
     21 N          -20.1700     8.5780    30.7890 n3         1 RBM      -0.799500
     22 C1         -19.0100     7.7770    30.4080 c3         1 RBM       0.220800
     23 C2         -18.1130     8.3610    29.3000 c3         1 RBM      -0.060300
     24 C3         -17.4070     9.5770    29.6750 c1         1 RBM       0.304900
     25 C          -19.9750     9.7230    31.6870 c3         1 RBM       0.211100
     26 C16        -22.4200     4.2070    30.0730 ca         1 RBM      -0.049300
     27 O2         -19.7310     4.4730    29.4870 o          1 RBM      -0.565100
     28 C14        -19.3200     7.5610    25.9060 ca         1 RBM      -0.104000
     29 C12        -17.5340     8.8830    24.9370 ca         1 RBM      -0.107000
     30 C11        -16.6090     7.9340    25.2890 ca         1 RBM      -0.085000
     31 C9         -16.0830     5.7800    26.3810 ca         1 RBM       0.347900
     32 N4         -16.4160     4.6890    27.0320 nb         1 RBM      -0.648000
     33 H1         -20.7710     5.3890    26.6630 hn         1 RBM       0.155000
     34 H2         -22.1490     6.8120    27.8400 h1         1 RBM       0.067200
     35 H3         -23.5760     6.3330    28.7650 h1         1 RBM       0.067200
     36 H4         -22.4860     4.3110    27.9340 hc         1 RBM       0.076700
     37 H5         -17.9680     3.5800    27.8520 h4         1 RBM       0.040100
     38 H6         -19.6160     9.4560    24.9880 ha         1 RBM       0.124000
     39 H7         -22.4860     2.2170    29.2630 ha         1 RBM       0.130000
     40 H8         -23.0820     4.9930    33.3020 ha         1 RBM       0.121000
     41 H9         -21.7320     6.8000    31.9740 h1         1 RBM       0.067200
     42 H10        -23.3950     6.9620    31.4100 h1         1 RBM       0.067200
     43 H11        -23.4190     2.5500    33.4340 ha         1 RBM       0.134000
     44 H12        -19.3560     6.8060    30.0650 h1         1 RBM       0.078200
     45 H13        -18.4240     7.6140    31.3120 h1         1 RBM       0.078200
     46 H14        -18.7030     8.5650    28.4070 hc         1 RBM       0.093200
     47 H15        -17.3650     7.6100    29.0340 hc         1 RBM       0.093200
     48 H16        -19.1750     9.4560    32.3760 h1         1 RBM       0.054367
     49 H17        -19.6940    10.6330    31.1540 h1         1 RBM       0.054367
     50 H18        -20.8830     9.9040    32.2540 h1         1 RBM       0.054367
     51 H19        -20.3630     7.4560    26.1640 ha         1 RBM       0.123000
     52 H20        -17.2250     9.7840    24.4230 ha         1 RBM       0.121000
     53 H21        -15.5590     8.0700    25.0610 ha         1 RBM       0.120000
     54 H22        -15.0310     5.9240    26.1540 h4         1 RBM       0.024100
     55 CL         -23.2150     0.5150    31.4320 cl         1 RBM      -0.205000
@<TRIPOS>BOND
     1     1    24 3   
     2     2     5 1   
     3     2     6 1   
     4     2    33 1   
     5     3     4 1   
     6     3    17 1   
     7     3    34 1   
     8     3    35 1   
     9     4     5 1   
    10     4    26 1   
    11     4    36 1   
    12     5    27 2   
    13     6     7 ar  
    14     6    10 ar  
    15     7    32 ar  
    16     7    37 1   
    17     8    10 ar  
    18     8    30 ar  
    19     8    31 ar  
    20     9    28 ar  
    21     9    29 ar  
    22     9    38 1   
    23    10    28 ar  
    24    11    15 ar  
    25    11    26 ar  
    26    11    39 1   
    27    12    13 ar  
    28    12    16 ar  
    29    12    40 1   
    30    13    14 1   
    31    13    26 ar  
    32    14    17 1   
    33    14    41 1   
    34    14    42 1   
    35    15    16 ar  
    36    15    55 1   
    37    16    43 1   
    38    17    18 1   
    39    18    19 2   
    40    18    20 2   
    41    18    21 1   
    42    21    22 1   
    43    21    25 1   
    44    22    23 1   
    45    22    44 1   
    46    22    45 1   
    47    23    24 1   
    48    23    46 1   
    49    23    47 1   
    50    25    48 1   
    51    25    49 1   
    52    25    50 1   
    53    28    51 1   
    54    29    30 ar  
    55    29    52 1   
    56    30    53 1   
    57    31    32 ar  
    58    31    54 1   
@<TRIPOS>SUBSTRUCTURE
     1 RBM         1 TEMP              0 ****  ****    0 ROOT
