@<TRIPOS>MOLECULE
RBO
   38    41     1     0     0
SMALL
No Charge or Current Charge


@<TRIPOS>ATOM
      1 C18        -44.3530   -27.7520     6.2990 ca         1 RBO       0.183900
      2 C16        -46.5300   -28.3770     6.4740 ca         1 RBO       0.193500
      3 C14        -48.4630   -29.7230     3.5930 ca         1 RBO      -0.064000
      4 C13        -49.8150   -30.1340     3.6160 ca         1 RBO      -0.141000
      5 C12        -50.5760   -30.0580     4.8080 ca         1 RBO      -0.100000
      6 C11        -49.9940   -29.5690     5.9960 ca         1 RBO      -0.141000
      7 C10        -48.6560   -29.1720     5.9380 ca         1 RBO      -0.026200
      8 C20        -45.7200   -27.9390     1.9810 c6         1 RBO       0.185800
      9 C03        -44.4510   -31.8640     0.5960 c3         1 RBO      -0.222400
     10 C04        -44.4030   -30.4210     1.1630 c6         1 RBO       0.168300
     11 C05        -45.0030   -30.2900     2.6030 c6         1 RBO       0.196800
     12 C07        -45.3530   -28.5600     4.3830 ca         1 RBO       0.440900
     13 C08        -46.5470   -28.7350     5.1210 cp         1 RBO      -0.243000
     14 C09        -47.8840   -29.2350     4.7840 cp         1 RBO      -0.028000
     15 C21        -45.0830   -28.1860     0.5820 c6         1 RBO       0.147600
     16 N06        -45.1800   -28.8640     3.0260 nh         1 RBO      -0.745300
     17 N15        -47.8210   -28.6550     6.9350 na         1 RBO      -0.341300
     18 N17        -45.4440   -27.8830     7.0860 nb         1 RBO      -0.270000
     19 N19        -44.2530   -28.0650     4.9860 nb         1 RBO      -0.280000
     20 O01        -44.1380   -33.3810     2.3820 o          1 RBO      -0.736500
     21 O22        -45.1310   -29.5870     0.2290 os         1 RBO      -0.485000
     22 O23        -42.4050   -32.8740     1.2080 o          1 RBO      -0.736500
     23 H181       -43.4570   -27.3530     6.7730 h5         1 RBO       0.039100
     24 H141       -47.8950   -29.7870     2.6720 ha         1 RBO       0.130000
     25 H131       -50.2760   -30.5130     2.7070 ha         1 RBO       0.110000
     26 H121       -51.6160   -30.3790     4.8070 ha         1 RBO       0.103000
     27 H111       -50.5650   -29.5050     6.9190 ha         1 RBO       0.107000
     28 H201       -45.5240   -26.8950     2.2680 h1         1 RBO       0.057200
     29 H202       -46.8100   -28.0450     1.8960 h1         1 RBO       0.057200
     30 H031       -45.5000   -32.1830     0.6120 hc         1 RBO       0.034200
     31 H032       -44.0290   -31.8060    -0.4140 hc         1 RBO       0.034200
     32 H041       -43.3540   -30.0890     1.1870 h1         1 RBO       0.093700
     33 H051       -45.9610   -30.8260     2.6410 h1         1 RBO       0.070700
     34 H052       -44.3280   -30.7990     3.3070 h1         1 RBO       0.070700
     35 H212       -44.0350   -27.8530     0.5860 h1         1 RBO       0.034700
     36 H211       -45.6200   -27.6040    -0.1800 h1         1 RBO       0.034700
     37 H151       -48.1130   -28.4950     7.8920 hn         1 RBO       0.355000
     38 C02        -43.5990   -32.8000     1.4540 c          1 RBO       0.711000
@<TRIPOS>BOND
     1     1    18 ar  
     2     1    19 ar  
     3     1    23 1   
     4     2    13 ar  
     5     2    17 1   
     6     2    18 ar  
     7     3     4 ar  
     8     3    14 ar  
     9     3    24 1   
    10     4     5 ar  
    11     4    25 1   
    12     5     6 ar  
    13     5    26 1   
    14     6     7 ar  
    15     6    27 1   
    16     7    14 ar  
    17     7    17 1   
    18     8    15 1   
    19     8    16 1   
    20     8    28 1   
    21     8    29 1   
    22     9    10 1   
    23     9    30 1   
    24     9    31 1   
    25     9    38 1   
    26    10    11 1   
    27    10    21 1   
    28    10    32 1   
    29    11    16 1   
    30    11    33 1   
    31    11    34 1   
    32    12    13 ar  
    33    12    16 1   
    34    12    19 ar  
    35    13    14 1   
    36    15    21 1   
    37    15    35 1   
    38    15    36 1   
    39    17    37 1   
    40    20    38 1   
    41    22    38 1   
@<TRIPOS>SUBSTRUCTURE
     1 RBO         1 TEMP              0 ****  ****    0 ROOT
