@<TRIPOS>MOLECULE
RBO
   38    41     1     0     0
SMALL
abcg2


@<TRIPOS>ATOM
      1 C18        -44.3410   -28.6590     6.3210 ca         1 RBO       0.183900
      2 C16        -46.5570   -28.5190     6.2670 ca         1 RBO       0.193500
      3 C14        -48.7630   -29.7360     3.5820 ca         1 RBO      -0.064000
      4 C13        -50.1470   -29.8090     3.6770 ca         1 RBO      -0.141000
      5 C12        -50.8210   -29.3480     4.8140 ca         1 RBO      -0.100000
      6 C11        -50.1200   -28.8240     5.8930 ca         1 RBO      -0.141000
      7 C10        -48.7360   -28.7610     5.7950 ca         1 RBO      -0.026200
      8 C20        -46.1010   -28.8880     1.9710 c6         1 RBO       0.185800
      9 C03        -44.5630   -31.5720     0.8990 c3         1 RBO      -0.222400
     10 C04        -43.8770   -30.2180     1.0550 c6         1 RBO       0.168300
     11 C05        -43.8330   -29.7210     2.4930 c6         1 RBO       0.196800
     12 C07        -45.3590   -29.1580     4.3040 ca         1 RBO       0.440900
     13 C08        -46.6180   -28.9820     4.9300 cp         1 RBO      -0.243000
     14 C09        -48.0270   -29.1830     4.6350 cp         1 RBO      -0.028000
     15 C21        -45.3000   -28.2750     0.8370 c6         1 RBO       0.147600
     16 N06        -45.1830   -29.4240     2.9830 nh         1 RBO      -0.745300
     17 N15        -47.8220   -28.3460     6.7470 na         1 RBO      -0.341300
     18 N17        -45.4460   -28.3280     6.9850 nb         1 RBO      -0.270000
     19 N19        -44.2390   -29.0510     5.0560 nb         1 RBO      -0.280000
     20 O01        -44.4660   -33.7430     1.8790 o          1 RBO      -0.736500
     21 O22        -44.4900   -29.2440     0.1780 os         1 RBO      -0.485000
     22 O23        -42.5240   -32.6880     1.5040 o          1 RBO      -0.736500
     23 H181       -43.4080   -28.5850     6.8720 h5         1 RBO       0.039100
     24 H141       -48.2730   -30.1250     2.7040 ha         1 RBO       0.130000
     25 H131       -50.7120   -30.2380     2.8600 ha         1 RBO       0.110000
     26 H121       -51.9000   -29.4150     4.8620 ha         1 RBO       0.103000
     27 H111       -50.6280   -28.4900     6.7880 ha         1 RBO       0.107000
     28 H201       -46.7350   -28.1270     2.4200 h1         1 RBO       0.057200
     29 H202       -46.7380   -29.6730     1.5610 h1         1 RBO       0.057200
     30 H031       -45.5640   -31.5580     1.3310 hc         1 RBO       0.034200
     31 H032       -44.6820   -31.7640    -0.1720 hc         1 RBO       0.034200
     32 H041       -42.8440   -30.3210     0.7220 h1         1 RBO       0.093700
     33 H051       -43.3850   -30.4890     3.1180 h1         1 RBO       0.070700
     34 H052       -43.1930   -28.8360     2.5610 h1         1 RBO       0.070700
     35 H212       -44.6840   -27.4510     1.2160 h1         1 RBO       0.034700
     36 H211       -45.9830   -27.8730     0.0880 h1         1 RBO       0.034700
     37 H151       -48.0410   -28.0700     7.6910 hn         1 RBO       0.355000
     38 C02        -43.7800   -32.7640     1.4880 c          1 RBO       0.711000
@<TRIPOS>BOND
     1     1    18 ar  
     2     1    19 ar  
     3     1    23 1   
     4     2    13 ar  
     5     2    17 1   
     6     2    18 ar  
     7     3     4 ar  
     8     3    14 ar  
     9     3    24 1   
    10     4     5 ar  
    11     4    25 1   
    12     5     6 ar  
    13     5    26 1   
    14     6     7 ar  
    15     6    27 1   
    16     7    14 ar  
    17     7    17 1   
    18     8    15 1   
    19     8    16 1   
    20     8    28 1   
    21     8    29 1   
    22     9    10 1   
    23     9    30 1   
    24     9    31 1   
    25     9    38 1   
    26    10    11 1   
    27    10    21 1   
    28    10    32 1   
    29    11    16 1   
    30    11    33 1   
    31    11    34 1   
    32    12    13 ar  
    33    12    16 1   
    34    12    19 ar  
    35    13    14 1   
    36    15    21 1   
    37    15    35 1   
    38    15    36 1   
    39    17    37 1   
    40    20    38 1   
    41    22    38 1   
@<TRIPOS>SUBSTRUCTURE
     1 RBO         1 TEMP              0 ****  ****    0 ROOT
