@<TRIPOS>MOLECULE
RBP
   47    50     1     0     0
SMALL
No Charge or Current Charge


@<TRIPOS>ATOM
      1 N13         -2.0250     5.3040     0.1200 n7         1 RBP      -0.868400
      2 C12         -2.2960     4.6150    -1.1590 c6         1 RBP       0.157800
      3 C11         -2.1690     3.0840    -0.9920 c6         1 RBP      -0.069400
      4 C3          -0.7710     2.6620    -0.4500 c6         1 RBP      -0.037400
      5 C4          -0.7400     1.1290    -0.3310 ca         1 RBP      -0.052300
      6 C10         -0.0680     0.3670    -1.3110 ca         1 RBP      -0.104000
      7 C9          -0.0590    -1.0370    -1.2400 ca         1 RBP      -0.086500
      8 C7          -0.7280    -1.6900    -0.1930 ca         1 RBP      -0.025900
      9 Br          -0.7060    -3.5990    -0.0920 br         1 RBP      -0.106100
     10 C6          -1.4150    -0.9430     0.7780 ca         1 RBP      -0.086500
     11 C5          -1.4280     0.4610     0.7050 ca         1 RBP      -0.104000
     12 C2          -0.4360     3.4530     0.8670 c6         1 RBP       0.176300
     13 O1           0.9360     3.2830     1.3110 os         1 RBP      -0.460000
     14 C15          1.3120     2.0650     1.9860 c3         1 RBP       0.212900
     15 C16          2.0930     1.1340     1.0590 ca         1 RBP      -0.091300
     16 C17          2.8410     1.6310    -0.0300 ca         1 RBP      -0.084000
     17 C18          3.5410     0.7500    -0.8730 ca         1 RBP      -0.106000
     18 C19          3.5070    -0.6350    -0.6330 ca         1 RBP      -0.030000
     19 C20          4.1950    -1.5220    -1.4820 ca         1 RBP      -0.102000
     20 C21          4.1530    -2.9060    -1.2380 ca         1 RBP      -0.105000
     21 C22          3.4270    -3.4060    -0.1440 ca         1 RBP      -0.112000
     22 C24          2.7410    -2.5240     0.7080 ca         1 RBP      -0.095000
     23 C23          2.7770    -1.1380     0.4660 ca         1 RBP      -0.041000
     24 C25          2.0770    -0.2530     1.3060 ca         1 RBP      -0.075000
     25 C14         -0.6720     4.9820     0.6500 c6         1 RBP       0.145800
     26 H13         -2.0910     6.3200    -0.0300 hn         1 RBP       0.417000
     27 H121        -1.5870     4.9630    -1.9240 h1         1 RBP       0.032700
     28 H122        -3.3100     4.8660    -1.5030 h1         1 RBP       0.032700
     29 H111        -2.3540     2.5980    -1.9590 hc         1 RBP       0.051700
     30 H112        -2.9560     2.7300    -0.3130 hc         1 RBP       0.051700
     31 H3          -0.0250     2.9650    -1.1970 hc         1 RBP       0.063700
     32 H10          0.4550     0.8610    -2.1250 ha         1 RBP       0.119500
     33 H9           0.4730    -1.6150    -1.9920 ha         1 RBP       0.129500
     34 H6          -1.9410    -1.4500     1.5830 ha         1 RBP       0.129500
     35 H5          -1.9770     1.0250     1.4540 ha         1 RBP       0.119500
     36 H2          -1.1110     3.1290     1.6720 h1         1 RBP       0.051700
     37 H151         1.9590     2.3070     2.8380 h1         1 RBP       0.032700
     38 H152         0.4320     1.5480     2.3900 h1         1 RBP       0.032700
     39 H17          2.8780     2.6990    -0.2300 ha         1 RBP       0.115000
     40 H18          4.1050     1.1470    -1.7140 ha         1 RBP       0.113000
     41 H20          4.7590    -1.1420    -2.3310 ha         1 RBP       0.112000
     42 H21          4.6840    -3.5900    -1.8970 ha         1 RBP       0.112000
     43 H22          3.3950    -4.4780     0.0430 ha         1 RBP       0.113000
     44 H24          2.1780    -2.9190     1.5510 ha         1 RBP       0.119000
     45 H25          1.5070    -0.6430     2.1460 ha         1 RBP       0.118000
     46 H141         0.0870     5.3640    -0.0500 h1         1 RBP       0.042200
     47 H142        -0.5260     5.5060     1.6060 h1         1 RBP       0.042200
@<TRIPOS>BOND
     1     1     2 1   
     2     1    25 1   
     3     1    26 1   
     4     2     3 1   
     5     2    27 1   
     6     2    28 1   
     7     3     4 1   
     8     3    29 1   
     9     3    30 1   
    10     4     5 1   
    11     4    12 1   
    12     4    31 1   
    13     5     6 ar  
    14     5    11 ar  
    15     6     7 ar  
    16     6    32 1   
    17     7     8 ar  
    18     7    33 1   
    19     8     9 1   
    20     8    10 ar  
    21    10    11 ar  
    22    10    34 1   
    23    11    35 1   
    24    12    13 1   
    25    12    25 1   
    26    12    36 1   
    27    13    14 1   
    28    14    15 1   
    29    14    37 1   
    30    14    38 1   
    31    15    16 ar  
    32    15    24 ar  
    33    16    17 ar  
    34    16    39 1   
    35    17    18 ar  
    36    17    40 1   
    37    18    19 ar  
    38    18    23 ar  
    39    19    20 ar  
    40    19    41 1   
    41    20    21 ar  
    42    20    42 1   
    43    21    22 ar  
    44    21    43 1   
    45    22    23 ar  
    46    22    44 1   
    47    23    24 ar  
    48    24    45 1   
    49    25    46 1   
    50    25    47 1   
@<TRIPOS>SUBSTRUCTURE
     1 RBP         1 TEMP              0 ****  ****    0 ROOT
