@<TRIPOS>MOLECULE
RBP
   47    50     1     0     0
SMALL
abcg2


@<TRIPOS>ATOM
      1 N13         -1.7440     5.3280     0.2810 n7         1 RBP      -0.868400
      2 C12         -2.6980     4.7520    -0.6490 c6         1 RBP       0.157800
      3 C11         -2.7960     3.2510    -0.4210 c6         1 RBP      -0.069400
      4 C3          -1.4190     2.5970    -0.5680 c6         1 RBP      -0.037400
      5 C4          -1.4280     1.1080    -0.3430 ca         1 RBP      -0.052300
      6 C10         -0.8810     0.2480    -1.2900 ca         1 RBP      -0.104000
      7 C9          -0.8590    -1.1270    -1.1000 ca         1 RBP      -0.086500
      8 C7          -1.3850    -1.6500     0.0690 ca         1 RBP      -0.025900
      9 BR          -1.3590    -3.5200     0.3520 br         1 RBP      -0.106100
     10 C6          -1.9300    -0.8210     1.0390 ca         1 RBP      -0.086500
     11 C5          -1.9480     0.5500     0.8230 ca         1 RBP      -0.104000
     12 C2          -0.4230     3.2960     0.3640 c6         1 RBP       0.176300
     13 O1           0.8640     2.7550     0.1610 os         1 RBP      -0.460000
     14 C15          1.4300     2.0930     1.2740 c3         1 RBP       0.212900
     15 C16          2.4530     1.1210     0.7670 ca         1 RBP      -0.091300
     16 C17          3.7250     1.5820     0.3530 ca         1 RBP      -0.084000
     17 C18          4.6520     0.7180    -0.1590 ca         1 RBP      -0.106000
     18 C19          4.3600    -0.6610    -0.2890 ca         1 RBP      -0.030000
     19 C20          5.2950    -1.5830    -0.8150 ca         1 RBP      -0.102000
     20 C21          4.9800    -2.9100    -0.9280 ca         1 RBP      -0.105000
     21 C22          3.7130    -3.3780    -0.5200 ca         1 RBP      -0.112000
     22 C24          2.7890    -2.5090    -0.0050 ca         1 RBP      -0.095000
     23 C23          3.0870    -1.1320     0.1250 ca         1 RBP      -0.041000
     24 C25          2.1510    -0.2090     0.6480 ca         1 RBP      -0.075000
     25 C14         -0.4090     4.7940     0.0890 c6         1 RBP       0.145800
     26 H13         -1.7240     6.3330     0.1730 hn         1 RBP       0.417000
     27 H121        -2.4240     4.9320    -1.7020 h1         1 RBP       0.032700
     28 H122        -3.6720     5.2170    -0.4870 h1         1 RBP       0.032700
     29 H111        -3.4960     2.8100    -1.1340 hc         1 RBP       0.051700
     30 H112        -3.1960     3.0650     0.5800 hc         1 RBP       0.051700
     31 H3          -1.0740     2.7770    -1.5950 hc         1 RBP       0.063700
     32 H10         -0.4630     0.6540    -2.2030 ha         1 RBP       0.119500
     33 H9          -0.4250    -1.7670    -1.8570 ha         1 RBP       0.129500
     34 H6          -2.3400    -1.2260     1.9550 ha         1 RBP       0.129500
     35 H5          -2.3820     1.1820     1.5890 ha         1 RBP       0.119500
     36 H2          -0.7500     3.1520     1.4030 h1         1 RBP       0.051700
     37 H151         1.8950     2.8140     1.9590 h1         1 RBP       0.032700
     38 H152         0.6640     1.5540     1.8400 h1         1 RBP       0.032700
     39 H17          3.9650     2.6340     0.4490 ha         1 RBP       0.115000
     40 H18          5.6240     1.0810    -0.4720 ha         1 RBP       0.113000
     41 H20          6.2670    -1.2230    -1.1300 ha         1 RBP       0.112000
     42 H21          5.7030    -3.6070    -1.3320 ha         1 RBP       0.112000
     43 H22          3.4750    -4.4290    -0.6140 ha         1 RBP       0.113000
     44 H24          1.8180    -2.8690     0.3140 ha         1 RBP       0.119000
     45 H25          1.1760    -0.5710     0.9560 ha         1 RBP       0.118000
     46 H141        -0.0180     4.9640    -0.9280 h1         1 RBP       0.042200
     47 H142         0.2760     5.2850     0.7850 h1         1 RBP       0.042200
@<TRIPOS>BOND
     1     1     2 1   
     2     1    25 1   
     3     1    26 1   
     4     2     3 1   
     5     2    27 1   
     6     2    28 1   
     7     3     4 1   
     8     3    29 1   
     9     3    30 1   
    10     4     5 1   
    11     4    12 1   
    12     4    31 1   
    13     5     6 ar  
    14     5    11 ar  
    15     6     7 ar  
    16     6    32 1   
    17     7     8 ar  
    18     7    33 1   
    19     8     9 1   
    20     8    10 ar  
    21    10    11 ar  
    22    10    34 1   
    23    11    35 1   
    24    12    13 1   
    25    12    25 1   
    26    12    36 1   
    27    13    14 1   
    28    14    15 1   
    29    14    37 1   
    30    14    38 1   
    31    15    16 ar  
    32    15    24 ar  
    33    16    17 ar  
    34    16    39 1   
    35    17    18 ar  
    36    17    40 1   
    37    18    19 ar  
    38    18    23 ar  
    39    19    20 ar  
    40    19    41 1   
    41    20    21 ar  
    42    20    42 1   
    43    21    22 ar  
    44    21    43 1   
    45    22    23 ar  
    46    22    44 1   
    47    23    24 ar  
    48    24    45 1   
    49    25    46 1   
    50    25    47 1   
@<TRIPOS>SUBSTRUCTURE
     1 RBP         1 TEMP              0 ****  ****    0 ROOT
