@<TRIPOS>MOLECULE
RBQ
   52    54     1     0     0
SMALL
abcg2


@<TRIPOS>ATOM
      1 C1           0.0370     0.7150     0.1360 cc         1 RBQ       0.767800
      2 N2          -1.0580     0.2700     0.6750 nd         1 RBQ      -0.767300
      3 N3           0.0730     1.4840    -0.9770 n          1 RBQ      -0.340300
      4 C4          -2.2430     0.5960     0.1060 cd         1 RBQ       0.486600
      5 N5           1.2340     0.3470     0.6690 nh         1 RBQ      -0.775600
      6 C6          -1.1170     1.9260    -1.5910 c          1 RBQ       0.597200
      7 C7          -2.3020     1.4480    -0.9900 cc         1 RBQ      -0.517200
      8 C8           2.3980     1.2050     0.6070 c6         1 RBQ       0.196500
      9 C9           2.5480     1.9600     1.9250 c3         1 RBQ       0.271000
     10 N10         -3.3330     0.0730     0.7100 nh         1 RBQ      -0.665400
     11 C11          1.3670     1.7040    -1.6030 c6         1 RBQ       0.088000
     12 C12          2.3310     2.2070    -0.5570 c6         1 RBQ      -0.106400
     13 O13         -1.0460     2.6460    -2.5840 o          1 RBQ      -0.572000
     14 F14          2.7160     1.1470     2.9760 f          1 RBQ      -0.111667
     15 F15          3.6060     2.7800     1.8950 f          1 RBQ      -0.111667
     16 F16          1.4660     2.7040     2.1890 f          1 RBQ      -0.111667
     17 O17         -5.0760    -2.1430     0.7080 os         1 RBQ      -0.446000
     18 C18          1.3250    -0.9340     1.3590 c3         1 RBQ       0.243800
     19 C19         -4.6820     0.1920     0.1910 c6         1 RBQ       0.184300
     20 C20         -3.2480    -0.9370     1.7500 c6         1 RBQ       0.184300
     21 C21          1.0790    -2.0970     0.4180 c3         1 RBQ       0.139600
     22 O22          2.0160    -2.0250    -0.6250 os         1 RBQ      -0.469000
     23 C23         -3.7640    -2.2630     1.2140 c6         1 RBQ       0.127100
     24 C24         -5.1580    -1.1650    -0.3050 c6         1 RBQ       0.127100
     25 C25          1.6790    -2.7580    -1.7890 c3         1 RBQ       0.173300
     26 C26          2.6410    -2.3290    -2.8820 c3         1 RBQ      -0.106100
     27 C27          1.7300    -4.2620    -1.5580 c3         1 RBQ      -0.106100
     28 H111         1.7160     0.7670    -2.0460 h1         1 RBQ       0.079700
     29 H112         1.2460     2.4310    -2.3980 h1         1 RBQ       0.079700
     30 H7          -3.2310     1.7460    -1.4500 ha         1 RBQ       0.211000
     31 H8           3.2790     0.5700     0.4850 h1         1 RBQ       0.098700
     32 H181         2.3280    -1.0190     1.7720 h1         1 RBQ       0.068700
     33 H182         0.6290    -0.9860     2.1970 h1         1 RBQ       0.068700
     34 H121         1.9930     3.1920    -0.2310 hc         1 RBQ       0.077700
     35 H122         3.3230     2.3330    -0.9870 hc         1 RBQ       0.077700
     36 H191        -5.3350     0.5440     0.9950 h1         1 RBQ       0.070950
     37 H192        -4.7440     0.9190    -0.6130 h1         1 RBQ       0.070950
     38 H201        -2.2220    -1.0410     2.0900 h1         1 RBQ       0.070950
     39 H202        -3.8570    -0.6160     2.6020 h1         1 RBQ       0.070950
     40 H231        -3.7890    -3.0060     2.0130 h1         1 RBQ       0.053200
     41 H232        -3.0800    -2.6260     0.4330 h1         1 RBQ       0.053200
     42 H241        -4.5600    -1.4600    -1.1790 h1         1 RBQ       0.053200
     43 H242        -6.2020    -1.1050    -0.6170 h1         1 RBQ       0.053200
     44 H211         1.1680    -3.0260     0.9970 h1         1 RBQ       0.037200
     45 H212         0.0530    -2.0630     0.0300 h1         1 RBQ       0.037200
     46 H25          0.6570    -2.4900    -2.0980 h1         1 RBQ       0.032700
     47 H261         3.6680    -2.6030    -2.6350 hc         1 RBQ       0.042367
     48 H262         2.3810    -2.8140    -3.8220 hc         1 RBQ       0.042367
     49 H263         2.6030    -1.2500    -3.0420 hc         1 RBQ       0.042367
     50 H271         1.0210    -4.5830    -0.7950 hc         1 RBQ       0.042367
     51 H272         1.4810    -4.7920    -2.4780 hc         1 RBQ       0.042367
     52 H273         2.7300    -4.5740    -1.2490 hc         1 RBQ       0.042367
@<TRIPOS>BOND
     1     1     2 2   
     2     1     3 1   
     3     1     5 1   
     4     2     4 1   
     5     3     6 1   
     6     3    11 1   
     7     4     7 2   
     8     4    10 1   
     9     5     8 1   
    10     5    18 1   
    11     6     7 1   
    12     6    13 2   
    13     7    30 1   
    14     8     9 1   
    15     8    12 1   
    16     8    31 1   
    17     9    14 1   
    18     9    15 1   
    19     9    16 1   
    20    10    19 1   
    21    10    20 1   
    22    11    12 1   
    23    11    28 1   
    24    11    29 1   
    25    12    34 1   
    26    12    35 1   
    27    17    23 1   
    28    17    24 1   
    29    18    21 1   
    30    18    32 1   
    31    18    33 1   
    32    19    24 1   
    33    19    36 1   
    34    19    37 1   
    35    20    23 1   
    36    20    38 1   
    37    20    39 1   
    38    21    22 1   
    39    21    44 1   
    40    21    45 1   
    41    22    25 1   
    42    23    40 1   
    43    23    41 1   
    44    24    42 1   
    45    24    43 1   
    46    25    26 1   
    47    25    27 1   
    48    25    46 1   
    49    26    47 1   
    50    26    48 1   
    51    26    49 1   
    52    27    50 1   
    53    27    51 1   
    54    27    52 1   
@<TRIPOS>SUBSTRUCTURE
     1 RBQ         1 TEMP              0 ****  ****    0 ROOT
