@<TRIPOS>MOLECULE
RBQ
   52    54     1     0     0
SMALL
No Charge or Current Charge


@<TRIPOS>ATOM
      1 C1          -0.0460     0.7150     0.2060 cc         1 RBQ       0.767800
      2 N2          -1.1400     0.3100     0.8260 nd         1 RBQ      -0.767300
      3 N3           0.0290     1.2990    -1.0450 n          1 RBQ      -0.340300
      4 C4          -2.3110     0.4640     0.1330 cd         1 RBQ       0.486600
      5 N5           1.1540     0.4290     0.8340 nh         1 RBQ      -0.775600
      6 C6          -1.1140     1.3910    -1.8070 c          1 RBQ       0.597200
      7 C7          -2.3030     0.9550    -1.1330 cc         1 RBQ      -0.517200
      8 C8           2.3980     1.2500     0.6170 c6         1 RBQ       0.196500
      9 C9           2.9370     1.9180     1.9400 c3         1 RBQ       0.271000
     10 N10         -3.4540     0.0490     0.8040 nh         1 RBQ      -0.665400
     11 C11          1.3190     1.7410    -1.6180 c6         1 RBQ       0.088000
     12 C12          2.1920     2.3050    -0.4950 c6         1 RBQ      -0.106400
     13 O13         -1.1350     1.8160    -2.9520 o          1 RBQ      -0.572000
     14 F14          3.2970     1.0030     2.8700 f          1 RBQ      -0.111667
     15 F15          4.0310     2.6790     1.7020 f          1 RBQ      -0.111667
     16 F16          2.0100     2.7230     2.5140 f          1 RBQ      -0.111667
     17 O17         -5.7060    -1.7520     0.7520 os         1 RBQ      -0.446000
     18 C18          1.3570    -0.9350     1.4040 c3         1 RBQ       0.243800
     19 C19         -4.8240     0.5320     0.4380 c6         1 RBQ       0.184300
     20 C20         -3.4650    -1.1910     1.6490 c6         1 RBQ       0.184300
     21 C21          1.1760    -2.0950     0.3890 c3         1 RBQ       0.139600
     22 O22          2.0990    -1.9070    -0.7100 os         1 RBQ      -0.469000
     23 C23         -4.3850    -2.2820     1.0260 c6         1 RBQ       0.127100
     24 C24         -5.6820    -0.6230    -0.1550 c6         1 RBQ       0.127100
     25 C25          1.9400    -2.7920    -1.8350 c3         1 RBQ       0.173300
     26 C26          2.8420    -2.2420    -2.9540 c3         1 RBQ      -0.106100
     27 C27          2.3270    -4.2290    -1.4200 c3         1 RBQ      -0.106100
     28 H111         1.8180     0.8840    -2.0920 h1         1 RBQ       0.079700
     29 H112         1.1670     2.5170    -2.3820 h1         1 RBQ       0.079700
     30 H7          -3.2040     1.0340    -1.7210 ha         1 RBQ       0.211000
     31 H8           3.1950     0.5760     0.2650 h1         1 RBQ       0.098700
     32 H181         2.3650    -1.0320     1.8270 h1         1 RBQ       0.068700
     33 H182         0.6590    -1.0950     2.2370 h1         1 RBQ       0.068700
     34 H121         1.7030     3.1990    -0.0850 hc         1 RBQ       0.077700
     35 H122         3.1610     2.6320    -0.8960 hc         1 RBQ       0.077700
     36 H191        -5.3290     0.9130     1.3370 h1         1 RBQ       0.070950
     37 H192        -4.7900     1.3700    -0.2720 h1         1 RBQ       0.070950
     38 H201        -2.4590    -1.6160     1.7690 h1         1 RBQ       0.070950
     39 H202        -3.8300    -0.9510     2.6580 h1         1 RBQ       0.070950
     40 H231        -4.4750    -3.1320     1.7160 h1         1 RBQ       0.053200
     41 H232        -3.9430    -2.6500     0.0890 h1         1 RBQ       0.053200
     42 H241        -5.2660    -0.9410    -1.1220 h1         1 RBQ       0.053200
     43 H242        -6.7110    -0.2750    -0.3230 h1         1 RBQ       0.053200
     44 H211         1.3640    -3.0460     0.9040 h1         1 RBQ       0.037200
     45 H212         0.1390    -2.1030     0.0270 h1         1 RBQ       0.037200
     46 H25          0.9000    -2.7830    -2.1900 h1         1 RBQ       0.032700
     47 H261         3.8920    -2.2230    -2.6360 hc         1 RBQ       0.042367
     48 H262         2.7650    -2.8670    -3.8520 hc         1 RBQ       0.042367
     49 H263         2.5420    -1.2230    -3.2240 hc         1 RBQ       0.042367
     50 H271         1.5930    -4.6540    -0.7260 hc         1 RBQ       0.042367
     51 H272         2.3620    -4.8820    -2.3000 hc         1 RBQ       0.042367
     52 H273         3.3140    -4.2460    -0.9430 hc         1 RBQ       0.042367
@<TRIPOS>BOND
     1     1     2 2   
     2     1     3 1   
     3     1     5 1   
     4     2     4 1   
     5     3     6 1   
     6     3    11 1   
     7     4     7 2   
     8     4    10 1   
     9     5     8 1   
    10     5    18 1   
    11     6     7 1   
    12     6    13 2   
    13     7    30 1   
    14     8     9 1   
    15     8    12 1   
    16     8    31 1   
    17     9    14 1   
    18     9    15 1   
    19     9    16 1   
    20    10    19 1   
    21    10    20 1   
    22    11    12 1   
    23    11    28 1   
    24    11    29 1   
    25    12    34 1   
    26    12    35 1   
    27    17    23 1   
    28    17    24 1   
    29    18    21 1   
    30    18    32 1   
    31    18    33 1   
    32    19    24 1   
    33    19    36 1   
    34    19    37 1   
    35    20    23 1   
    36    20    38 1   
    37    20    39 1   
    38    21    22 1   
    39    21    44 1   
    40    21    45 1   
    41    22    25 1   
    42    23    40 1   
    43    23    41 1   
    44    24    42 1   
    45    24    43 1   
    46    25    26 1   
    47    25    27 1   
    48    25    46 1   
    49    26    47 1   
    50    26    48 1   
    51    26    49 1   
    52    27    50 1   
    53    27    51 1   
    54    27    52 1   
@<TRIPOS>SUBSTRUCTURE
     1 RBQ         1 TEMP              0 ****  ****    0 ROOT
