@<TRIPOS>MOLECULE
RBS
   36    38     1     0     0
SMALL
abcg2


@<TRIPOS>ATOM
      1 O61         -1.8670    -1.9380    -2.8980 o          1 RBS      -0.568100
      2 C10         -0.7000    -2.2890    -2.8580 c          1 RBS       0.604300
      3 C11         -0.2590    -3.5290    -3.5460 ce         1 RBS      -0.276200
      4 C51          0.9640    -3.7600    -4.0110 c2         1 RBS      -0.269000
      5 N11          0.2750    -1.6020    -2.2040 ns         1 RBS      -0.149000
      6 C9           0.1470    -0.3990    -1.5050 ca         1 RBS      -0.025000
      7 C8           1.0630    -0.1320    -0.5090 ca         1 RBS      -0.144000
      8 C13         -0.8410     0.5620    -1.8110 ca         1 RBS      -0.089000
      9 C17         -0.8920     1.7380    -1.1130 ca         1 RBS      -0.075000
     10 C18          0.0290     2.0260    -0.0890 ca         1 RBS       0.030000
     11 C7           1.0250     1.0750     0.2060 ca         1 RBS      -0.144000
     12 C6           1.9420     1.4460     1.2570 ca         1 RBS       0.403900
     13 N3           1.8190     2.5990     1.8750 nb         1 RBS      -0.273000
     14 C19          0.8230     3.4160     1.4980 ca         1 RBS       0.162900
     15 N2          -0.0650     3.2110     0.5730 nb         1 RBS      -0.194000
     16 N1           2.9300     0.5920     1.5980 nu         1 RBS      -0.928900
     17 C5           3.9540     0.6910     2.5450 ca         1 RBS       0.303000
     18 C4           4.1910     1.7960     3.3650 ca         1 RBS      -0.147000
     19 C20          4.7950    -0.4230     2.6500 ca         1 RBS      -0.147000
     20 C21          5.8460    -0.4340     3.5490 ca         1 RBS      -0.084000
     21 C22          6.0840     0.6650     4.3650 ca         1 RBS      -0.135000
     22 C3           5.2520     1.7680     4.2620 ca         1 RBS      -0.084000
     23 H111        -1.0540    -4.2450    -3.7210 ha         1 RBS       0.207000
     24 H511         1.1870    -4.6740    -4.5440 ha         1 RBS       0.170000
     25 H512         1.7840    -3.0600    -3.9040 ha         1 RBS       0.170000
     26 HN11         1.1600    -2.0710    -2.0900 hn         1 RBS       0.151000
     27 H8           1.8120    -0.8880    -0.3000 ha         1 RBS       0.101000
     28 H13         -1.5530     0.3880    -2.6000 ha         1 RBS       0.148000
     29 H17         -1.6460     2.4770    -1.3490 ha         1 RBS       0.140000
     30 H19          0.7670     4.3550     2.0400 h5         1 RBS       0.047100
     31 HN1          2.9510    -0.2770     1.0910 hn         1 RBS       0.494000
     32 H4           3.5590     2.6660     3.3050 ha         1 RBS       0.129000
     33 H20          4.6200    -1.2870     2.0190 ha         1 RBS       0.129000
     34 H21          6.4790    -1.3090     3.6110 ha         1 RBS       0.113500
     35 H22          6.9060     0.6590     5.0690 ha         1 RBS       0.116000
     36 H3           5.4230     2.6340     4.8900 ha         1 RBS       0.113500
@<TRIPOS>BOND
     1     1     2 2   
     2     2     3 1   
     3     2     5 1   
     4     3     4 2   
     5     3    23 1   
     6     4    24 1   
     7     4    25 1   
     8     5     6 1   
     9     5    26 1   
    10     6     7 ar  
    11     6     8 ar  
    12     7    11 ar  
    13     7    27 1   
    14     8     9 ar  
    15     8    28 1   
    16     9    10 ar  
    17     9    29 1   
    18    10    11 ar  
    19    10    15 ar  
    20    11    12 ar  
    21    12    13 ar  
    22    12    16 1   
    23    13    14 ar  
    24    14    15 ar  
    25    14    30 1   
    26    16    17 1   
    27    16    31 1   
    28    17    18 ar  
    29    17    19 ar  
    30    18    22 ar  
    31    18    32 1   
    32    19    20 ar  
    33    19    33 1   
    34    20    21 ar  
    35    20    34 1   
    36    21    22 ar  
    37    21    35 1   
    38    22    36 1   
@<TRIPOS>SUBSTRUCTURE
     1 RBS         1 TEMP              0 ****  ****    0 ROOT
