@<TRIPOS>MOLECULE
RBS
   36    38     1     0     0
SMALL
No Charge or Current Charge


@<TRIPOS>ATOM
      1 O61         -1.5060    -1.5290    -3.8500 o          1 RBS      -0.568100
      2 C10         -0.4920    -2.0240    -3.3760 c          1 RBS       0.604300
      3 C11          0.0650    -3.2990    -3.9290 ce         1 RBS      -0.276200
      4 C51          1.1770    -3.9550    -3.5000 c2         1 RBS      -0.269000
      5 N11          0.2220    -1.4810    -2.3160 ns         1 RBS      -0.149000
      6 C9           0.0360    -0.3090    -1.5300 ca         1 RBS      -0.025000
      7 C8           0.9630    -0.0670    -0.4990 ca         1 RBS      -0.144000
      8 C13         -1.0160     0.6090    -1.7330 ca         1 RBS      -0.089000
      9 C17         -1.1310     1.7470    -0.9180 ca         1 RBS      -0.075000
     10 C18         -0.2090     1.9950     0.1130 ca         1 RBS       0.030000
     11 C7           0.8490     1.0770     0.3270 ca         1 RBS      -0.144000
     12 C6           1.7600     1.3650     1.3760 ca         1 RBS       0.403900
     13 N3           1.6170     2.4570     2.1470 nb         1 RBS      -0.273000
     14 C19          0.5820     3.2690     1.8620 ca         1 RBS       0.162900
     15 N2          -0.3320     3.0930     0.8880 nb         1 RBS      -0.194000
     16 N1           2.8110     0.5000     1.6970 nu         1 RBS      -0.928900
     17 C5           3.9540     0.6040     2.4980 ca         1 RBS       0.303000
     18 C4           4.5800     1.8380     2.7610 ca         1 RBS      -0.147000
     19 C20          4.5170    -0.5740     3.0210 ca         1 RBS      -0.147000
     20 C21          5.6740    -0.5210     3.8180 ca         1 RBS      -0.084000
     21 C22          6.2830     0.7150     4.0880 ca         1 RBS      -0.135000
     22 C3           5.7380     1.8950     3.5570 ca         1 RBS      -0.084000
     23 H111        -0.5150    -3.7030    -4.7590 ha         1 RBS       0.207000
     24 H511         1.5010    -4.8840    -3.9740 ha         1 RBS       0.170000
     25 H512         1.8000    -3.6040    -2.6760 ha         1 RBS       0.170000
     26 HN11         1.0330    -2.0230    -2.0510 hn         1 RBS       0.151000
     27 H8           1.7750    -0.7750    -0.3550 ha         1 RBS       0.101000
     28 H13         -1.7530     0.4650    -2.5160 ha         1 RBS       0.148000
     29 H17         -1.9470     2.4460    -1.0900 ha         1 RBS       0.140000
     30 H19          0.4700     4.1550     2.4830 h5         1 RBS       0.047100
     31 HN1          2.6710    -0.4310     1.3150 hn         1 RBS       0.494000
     32 H4           4.1870     2.7560     2.3380 ha         1 RBS       0.129000
     33 H20          4.0530    -1.5350     2.8180 ha         1 RBS       0.129000
     34 H21          6.0980    -1.4370     4.2240 ha         1 RBS       0.113500
     35 H22          7.1790     0.7580     4.7040 ha         1 RBS       0.116000
     36 H3           6.2150     2.8530     3.7550 ha         1 RBS       0.113500
@<TRIPOS>BOND
     1     1     2 2   
     2     2     3 1   
     3     2     5 1   
     4     3     4 2   
     5     3    23 1   
     6     4    24 1   
     7     4    25 1   
     8     5     6 1   
     9     5    26 1   
    10     6     7 ar  
    11     6     8 ar  
    12     7    11 ar  
    13     7    27 1   
    14     8     9 ar  
    15     8    28 1   
    16     9    10 ar  
    17     9    29 1   
    18    10    11 ar  
    19    10    15 ar  
    20    11    12 ar  
    21    12    13 ar  
    22    12    16 1   
    23    13    14 ar  
    24    14    15 ar  
    25    14    30 1   
    26    16    17 1   
    27    16    31 1   
    28    17    18 ar  
    29    17    19 ar  
    30    18    22 ar  
    31    18    32 1   
    32    19    20 ar  
    33    19    33 1   
    34    20    21 ar  
    35    20    34 1   
    36    21    22 ar  
    37    21    35 1   
    38    22    36 1   
@<TRIPOS>SUBSTRUCTURE
     1 RBS         1 TEMP              0 ****  ****    0 ROOT
