@<TRIPOS>MOLECULE
RBT
  123   128     1     0     0
SMALL
bcc


@<TRIPOS>ATOM
      1 C1          -2.8960    -1.9920     3.4930 c          1 RBT       0.635900
      2 C2          -3.3530    -1.9940     2.1390 cc         1 RBT      -0.214600
      3 C3          -3.1660    -0.8680     1.3890 cd         1 RBT       0.132400
      4 C4          -2.3570     0.2640     1.8450 cd         1 RBT       0.467200
      5 C5          -0.5300     0.9140     3.4320 ca         1 RBT      -0.278600
      6 C6           0.1000     0.7180     4.6650 ca         1 RBT       0.210100
      7 C7          -0.3590    -0.1520     5.6320 ca         1 RBT      -0.164300
      8 C8          -1.4310    -0.9770     5.2440 ca         1 RBT       0.270100
      9 C9          -2.0500    -0.8680     3.9690 ca         1 RBT      -0.310600
     10 C10         -1.6430     0.1510     3.1030 ca         1 RBT       0.057100
     11 C11          0.4010     1.6820     2.6160 c          1 RBT       0.571700
     12 C12          1.7100     1.6490     3.4390 c5         1 RBT       0.246600
     13 C13          2.5580     0.4600     2.9940 c3         1 RBT      -0.140100
     14 C14          0.3080    -0.3390     6.9580 c3         1 RBT      -0.024800
     15 C15         -2.7810    -3.7480     0.6810 c          1 RBT       0.669300
     16 C16         -3.1390    -4.9990    -0.0440 ce         1 RBT      -0.183400
     17 C17         -2.6090    -5.2040    -1.2560 cf         1 RBT      -0.062000
     18 C18         -1.8400    -4.2140    -2.0300 cf         1 RBT      -0.144000
     19 C19         -0.6170    -4.3950    -2.5250 c2         1 RBT      -0.146200
     20 C20          0.1440    -3.3280    -3.2660 c3         1 RBT      -0.065500
     21 C21          0.9500    -2.4530    -2.2780 c3         1 RBT       0.163100
     22 C22          1.6960    -1.2920    -2.9630 c3         1 RBT      -0.086700
     23 C23          2.3550    -0.3240    -1.9300 c3         1 RBT       0.165100
     24 C24          3.7120     0.2280    -2.4060 c3         1 RBT      -0.077700
     25 C25          4.3380     1.2700    -1.4430 c3         1 RBT       0.171100
     26 C26          3.3870     2.2980    -0.8160 c3         1 RBT      -0.051700
     27 C27          4.1180     3.2400     0.1820 c3         1 RBT       0.187300
     28 C28          3.1500     3.5090     1.2980 c2         1 RBT      -0.200200
     29 C29          3.3520     2.9770     2.4920 c2         1 RBT       0.009100
     30 C30         -4.0120    -6.0030     0.6470 c3         1 RBT      -0.050900
     31 C31          1.0480    -3.9690    -4.3150 c3         1 RBT      -0.084100
     32 C32          0.7680    -0.4860    -3.8740 c3         1 RBT      -0.092100
     33 C33          3.7460     0.7620    -3.8400 c3         1 RBT      -0.088100
     34 C34          2.6030     3.1090    -1.8450 c3         1 RBT      -0.076100
     35 C36          6.5840    -0.6050     0.8160 c3         1 RBT      -0.157100
     36 C38         -3.1130     0.8270    -0.1480 c5         1 RBT       0.383400
     37 C39         -2.2110     0.8180    -1.3890 c6         1 RBT      -0.112400
     38 C40         -4.2970     1.7740    -0.3750 c6         1 RBT      -0.112400
     39 C41         -3.0350     0.5240    -2.6430 c6         1 RBT       0.168300
     40 C42         -5.0140     1.4390    -1.6850 c6         1 RBT       0.168300
     41 C44         -3.2950     2.7750    -4.7690 c3         1 RBT      -0.060700
     42 C45         -4.3730     2.2680    -5.7180 c3         1 RBT      -0.086100
     43 C46         -2.8540     4.1860    -5.1420 c3         1 RBT      -0.086100
     44 N1          -3.7160    -3.1930     1.4960 ns         1 RBT      -0.465100
     45 N2          -3.5670    -0.5270     0.1780 nu         1 RBT      -0.756000
     46 N3          -2.3480     1.2200     1.0040 n2         1 RBT      -0.481900
     47 N4          -4.1490     1.4310    -2.8490 n3         1 RBT      -0.727600
     48 O1          -3.1310    -2.9460     4.2560 o          1 RBT      -0.604100
     49 O2          -1.8070    -1.9110     6.0950 oh         1 RBT      -0.507100
     50 O3           1.2620     1.3950     4.7720 os         1 RBT      -0.283900
     51 O4           0.3020     2.1710     1.5220 o          1 RBT      -0.471100
     52 O5           2.3670     2.8750     3.4550 os         1 RBT      -0.314900
     53 O6           4.5600     4.3890    -0.4970 os         1 RBT      -0.400600
     54 O7           4.9490     0.6000    -0.3260 os         1 RBT      -0.424900
     55 O8           6.7970     0.0880    -1.4770 o          1 RBT      -0.548000
     56 O9           2.5950    -0.9250    -0.6770 oh         1 RBT      -0.606800
     57 O10          0.1160    -1.8770    -1.2920 oh         1 RBT      -0.641800
     58 O11         -1.6810    -3.2290     0.5540 o          1 RBT      -0.617100
     59 H131         3.4600     0.3870     3.6030 hc         1 RBT       0.066700
     60 H132         1.9940    -0.4650     3.1200 hc         1 RBT       0.066700
     61 H133         2.8450     0.5210     1.9450 hc         1 RBT       0.066700
     62 H141        -0.4040    -0.2260     7.7760 hc         1 RBT       0.050367
     63 H142         0.7430    -1.3360     7.0440 hc         1 RBT       0.050367
     64 H143         1.1040     0.3860     7.1100 hc         1 RBT       0.050367
     65 H17         -2.8020    -6.1610    -1.7330 ha         1 RBT       0.132000
     66 H18         -2.3270    -3.2560    -2.2020 ha         1 RBT       0.127000
     67 H19         -0.1010    -5.3360    -2.3470 ha         1 RBT       0.127000
     68 H20         -0.5870    -2.6830    -3.7650 hc         1 RBT       0.059700
     69 H21          1.6990    -3.1070    -1.8050 h1         1 RBT       0.042700
     70 H22          2.4850    -1.7520    -3.5670 hc         1 RBT       0.058700
     71 H23          1.6480     0.5090    -1.8040 h1         1 RBT       0.036700
     72 H24          4.3900    -0.6340    -2.4100 hc         1 RBT       0.067700
     73 H25          5.1220     1.8030    -1.9930 h1         1 RBT       0.066700
     74 H26          2.6600     1.7320    -0.2260 hc         1 RBT       0.076700
     75 H27          4.9860     2.7200     0.6130 h1         1 RBT       0.042700
     76 H28          2.1930     3.9540     1.0490 ha         1 RBT       0.157000
     77 H29          4.3050     2.5300     2.7650 h4         1 RBT       0.126000
     78 H301        -5.0280    -5.6290     0.7940 hc         1 RBT       0.047700
     79 H302        -4.0900    -6.9170     0.0600 hc         1 RBT       0.047700
     80 H303        -3.6210    -6.2630     1.6320 hc         1 RBT       0.047700
     81 H311         0.4700    -4.6070    -4.9840 hc         1 RBT       0.037700
     82 H312         1.5590    -3.2310    -4.9320 hc         1 RBT       0.037700
     83 H313         1.8120    -4.5920    -3.8440 hc         1 RBT       0.037700
     84 H321        -0.1590    -0.2360    -3.3560 hc         1 RBT       0.035367
     85 H322         1.2240     0.4550    -4.1740 hc         1 RBT       0.035367
     86 H323         0.5060    -1.0180    -4.7880 hc         1 RBT       0.035367
     87 H331         3.0980     1.6210    -4.0020 hc         1 RBT       0.039033
     88 H332         4.7630     1.0700    -4.0860 hc         1 RBT       0.039033
     89 H333         3.4630    -0.0050    -4.5600 hc         1 RBT       0.039033
     90 H341         1.9090     2.4800    -2.3980 hc         1 RBT       0.040033
     91 H342         2.0000     3.8750    -1.3550 hc         1 RBT       0.040033
     92 H343         3.2500     3.6050    -2.5670 hc         1 RBT       0.040033
     93 H361         5.9070    -1.4240     1.0620 hc         1 RBT       0.067033
     94 H362         7.5920    -0.9980     0.7190 hc         1 RBT       0.067033
     95 H363         6.5510     0.0990     1.6480 hc         1 RBT       0.067033
     96 H371         4.8870     5.5900     1.1770 h1         1 RBT       0.031033
     97 H372         6.2960     4.6780     0.6120 h1         1 RBT       0.031033
     98 H373         5.6960     6.0560    -0.3290 h1         1 RBT       0.031033
     99 H391        -1.7270     1.7940    -1.4620 hc         1 RBT       0.078700
    100 H392        -1.4250     0.0710    -1.2690 hc         1 RBT       0.078700
    101 H401        -4.9880     1.7090     0.4680 hc         1 RBT       0.078700
    102 H402        -3.9090     2.7940    -0.4050 hc         1 RBT       0.078700
    103 H411        -2.3810     0.5430    -3.5160 h1         1 RBT       0.053450
    104 H412        -3.4280    -0.4980    -2.5960 h1         1 RBT       0.053450
    105 H421        -5.8220     2.1550    -1.8430 h1         1 RBT       0.053450
    106 H422        -5.4920     0.4560    -1.6030 h1         1 RBT       0.053450
    107 H431        -4.6440     3.4020    -3.2300 h1         1 RBT       0.034700
    108 H432        -2.9890     3.2230    -2.6870 h1         1 RBT       0.034700
    109 H44         -2.4200     2.1210    -4.8630 hc         1 RBT       0.043700
    110 H451        -4.0080     2.2360    -6.7450 hc         1 RBT       0.034867
    111 H452        -4.7070     1.2670    -5.4460 hc         1 RBT       0.034867
    112 H453        -5.2460     2.9270    -5.7000 hc         1 RBT       0.034867
    113 H461        -2.0540     4.5420    -4.4900 hc         1 RBT       0.034867
    114 H462        -2.4870     4.2240    -6.1690 hc         1 RBT       0.034867
    115 H463        -3.6860     4.8890    -5.0610 hc         1 RBT       0.034867
    116 HN1         -4.6190    -3.6220     1.6270 hn         1 RBT       0.332500
    117 HN2         -4.1810    -1.0820    -0.3980 hn         1 RBT       0.470800
    118 HO2         -2.4400    -2.5090     5.5980 ho         1 RBT       0.494000
    119 HO9          1.7280    -1.2100    -0.3570 ho         1 RBT       0.426000
    120 H10         -0.4000    -2.5500    -0.8250 ho         1 RBT       0.449000
    121 C35          6.1480     0.0560    -0.4590 c          1 RBT       0.647100
    122 C37          5.3940     5.2080     0.2840 c3         1 RBT       0.121700
    123 C43         -3.7650     2.7550    -3.3140 c3         1 RBT       0.172800
@<TRIPOS>BOND
     1     1     2 1   
     2     1     9 1   
     3     1    48 2   
     4     2     3 2   
     5     2    44 1   
     6     3     4 1   
     7     3    45 1   
     8     4    10 1   
     9     4    46 2   
    10     5     6 ar  
    11     5    10 ar  
    12     5    11 1   
    13     6     7 ar  
    14     6    50 1   
    15     7     8 ar  
    16     7    14 1   
    17     8     9 ar  
    18     8    49 1   
    19     9    10 ar  
    20    11    12 1   
    21    11    51 2   
    22    12    13 1   
    23    12    50 1   
    24    12    52 1   
    25    13    59 1   
    26    13    60 1   
    27    13    61 1   
    28    14    62 1   
    29    14    63 1   
    30    14    64 1   
    31    15    16 1   
    32    15    44 1   
    33    15    58 2   
    34    16    17 2   
    35    16    30 1   
    36    17    18 1   
    37    17    65 1   
    38    18    19 2   
    39    18    66 1   
    40    19    20 1   
    41    19    67 1   
    42    20    21 1   
    43    20    31 1   
    44    20    68 1   
    45    21    22 1   
    46    21    57 1   
    47    21    69 1   
    48    22    23 1   
    49    22    32 1   
    50    22    70 1   
    51    23    24 1   
    52    23    56 1   
    53    23    71 1   
    54    24    25 1   
    55    24    33 1   
    56    24    72 1   
    57    25    26 1   
    58    25    54 1   
    59    25    73 1   
    60    26    27 1   
    61    26    34 1   
    62    26    74 1   
    63    27    28 1   
    64    27    53 1   
    65    27    75 1   
    66    28    29 2   
    67    28    76 1   
    68    29    52 1   
    69    29    77 1   
    70    30    78 1   
    71    30    79 1   
    72    30    80 1   
    73    31    81 1   
    74    31    82 1   
    75    31    83 1   
    76    32    84 1   
    77    32    85 1   
    78    32    86 1   
    79    33    87 1   
    80    33    88 1   
    81    33    89 1   
    82    34    90 1   
    83    34    91 1   
    84    34    92 1   
    85    35    93 1   
    86    35    94 1   
    87    35    95 1   
    88    35   121 1   
    89    36    37 1   
    90    36    38 1   
    91    36    45 1   
    92    36    46 1   
    93    37    39 1   
    94    37    99 1   
    95    37   100 1   
    96    38    40 1   
    97    38   101 1   
    98    38   102 1   
    99    39    47 1   
   100    39   103 1   
   101    39   104 1   
   102    40    47 1   
   103    40   105 1   
   104    40   106 1   
   105    41    42 1   
   106    41    43 1   
   107    41   109 1   
   108    41   123 1   
   109    42   110 1   
   110    42   111 1   
   111    42   112 1   
   112    43   113 1   
   113    43   114 1   
   114    43   115 1   
   115    44   116 1   
   116    45   117 1   
   117    47   123 1   
   118    49   118 1   
   119    53   122 1   
   120    54   121 1   
   121    55   121 2   
   122    56   119 1   
   123    57   120 1   
   124    96   122 1   
   125    97   122 1   
   126    98   122 1   
   127   107   123 1   
   128   108   123 1   
@<TRIPOS>SUBSTRUCTURE
     1 RBT         1 TEMP              0 ****  ****    0 ROOT
