@<TRIPOS>MOLECULE
RBT
  123   128     1     0     0
SMALL
No Charge or Current Charge


@<TRIPOS>ATOM
      1 C1          -2.5890    -2.2890     3.2960 c          1 RBT       0.635900
      2 C2          -2.9690    -2.2020     1.8520 cc         1 RBT      -0.214600
      3 C3          -2.8460    -0.9930     1.2010 cd         1 RBT       0.132400
      4 C4          -2.0930     0.0650     1.7460 cd         1 RBT       0.467200
      5 C5          -0.2580     0.7070     3.4260 ca         1 RBT      -0.278600
      6 C6           0.3530     0.5330     4.6530 ca         1 RBT       0.210100
      7 C7          -0.1010    -0.4250     5.5670 ca         1 RBT      -0.164300
      8 C8          -1.1150    -1.3090     5.1400 ca         1 RBT       0.270100
      9 C9          -1.7030    -1.1860     3.8540 ca         1 RBT      -0.310600
     10 C10         -1.3510    -0.0930     3.0160 ca         1 RBT       0.057100
     11 C11          0.5860     1.6420     2.6440 c          1 RBT       0.571700
     12 C12          1.9240     1.5550     3.4620 c5         1 RBT       0.293000
     13 C13          2.7910     0.3260     3.0210 c3         1 RBT      -0.140100
     14 C14          0.5870    -0.5970     6.9230 c3         1 RBT      -0.024800
     15 C15         -3.2560    -3.8270    -0.0540 c          1 RBT       0.602300
     16 C16         -3.4650    -5.3090    -0.2900 ce         1 RBT      -0.183400
     17 C17         -2.9040    -5.9730    -1.3540 cf         1 RBT      -0.112000
     18 C18         -1.9370    -5.4060    -2.2880 cf         1 RBT      -0.194000
     19 C19         -0.7890    -4.8120    -1.8820 c2         1 RBT      -0.196200
     20 C20          0.1440    -3.9870    -2.7540 c3         1 RBT      -0.065500
     21 C21          0.7400    -2.7710    -1.9640 c3         1 RBT       0.186300
     22 C22          1.4230    -1.6290    -2.8120 c3         1 RBT      -0.086700
     23 C23          1.9090    -0.3820    -1.9670 c3         1 RBT       0.188300
     24 C24          3.2850     0.2510    -2.4060 c3         1 RBT      -0.077700
     25 C25          3.8050     1.4640    -1.5280 c3         1 RBT       0.194300
     26 C26          2.7830     2.5730    -1.0900 c3         1 RBT      -0.051700
     27 C27          3.4890     3.6570    -0.1840 c3         1 RBT       0.210500
     28 C28          2.8970     3.6790     1.2100 c2         1 RBT      -0.250200
     29 C29          3.3420     2.9220     2.2210 c2         1 RBT      -0.040900
     30 C30         -4.3890    -6.0470     0.6770 c3         1 RBT      -0.050900
     31 C31          1.2360    -4.8760    -3.3890 c3         1 RBT      -0.084100
     32 C32          0.5220    -1.1740    -3.9990 c3         1 RBT      -0.092100
     33 C33          3.3760     0.5970    -3.9200 c3         1 RBT      -0.088100
     34 C34          1.9660     3.1900    -2.2630 c3         1 RBT      -0.076100
     35 C36          6.0490    -0.2070     0.9820 c3         1 RBT      -0.157100
     36 C38         -2.8680     0.7820    -0.2560 c5         1 RBT       0.383400
     37 C39         -1.8910     0.9540    -1.4440 c6         1 RBT      -0.112400
     38 C40         -4.0100     1.8160    -0.4160 c6         1 RBT      -0.112400
     39 C41         -2.6230     0.8590    -2.8000 c6         1 RBT       0.168300
     40 C42         -4.6790     1.7200    -1.8100 c6         1 RBT       0.168300
     41 C44         -2.3160     3.5780    -4.3070 c3         1 RBT      -0.060700
     42 C45         -2.9990     3.1830    -5.6380 c3         1 RBT      -0.086100
     43 C46         -1.8650     5.0560    -4.3330 c3         1 RBT      -0.086100
     44 N1          -3.4380    -3.3970     1.2560 ns         1 RBT      -0.398100
     45 N2          -3.3100    -0.5760     0.0130 nu         1 RBT      -0.811200
     46 N3          -2.1060     1.1270     0.9930 n2         1 RBT      -0.481900
     47 N4          -3.6930     1.8900    -2.9140 n3         1 RBT      -0.727600
     48 O1          -2.8910    -3.2590     3.9840 o          1 RBT      -0.604100
     49 O2          -1.4770    -2.3380     5.9550 oh         1 RBT      -0.546100
     50 O3           1.5010     1.2780     4.8310 os         1 RBT      -0.307100
     51 O4           0.2540     2.3740     1.7210 o          1 RBT      -0.471100
     52 O5           2.6860     2.8120     3.4260 os         1 RBT      -0.338100
     53 O6           3.3440     4.9730    -0.7550 os         1 RBT      -0.447000
     54 O7           4.3990     0.9370    -0.3180 os         1 RBT      -0.448100
     55 O8           6.3480     0.3010    -1.3680 o          1 RBT      -0.499000
     56 O9           1.9570    -0.7490    -0.5900 oh         1 RBT      -0.669000
     57 O10         -0.2700    -2.1970    -1.1260 oh         1 RBT      -0.704000
     58 O11         -2.8820    -3.0670    -0.9390 o          1 RBT      -0.617100
     59 H131         3.7800     0.3510     3.4920 hc         1 RBT       0.066700
     60 H132         2.3250    -0.6270     3.2960 hc         1 RBT       0.066700
     61 H133         2.9250     0.3000     1.9340 hc         1 RBT       0.066700
     62 H141        -0.1420    -0.7820     7.7200 hc         1 RBT       0.050367
     63 H142         1.2850    -1.4420     6.9030 hc         1 RBT       0.050367
     64 H143         1.1540     0.2960     7.2120 hc         1 RBT       0.050367
     65 H17         -3.1670    -7.0220    -1.5150 ha         1 RBT       0.182000
     66 H18         -2.2050    -5.4120    -3.3470 ha         1 RBT       0.177000
     67 H19         -0.5320    -4.8300    -0.8200 ha         1 RBT       0.177000
     68 H20         -0.4670    -3.5960    -3.5740 hc         1 RBT       0.059700
     69 H21          1.5190    -3.1920    -1.3110 h1         1 RBT       0.042700
     70 H22          2.3210    -2.0820    -3.2480 hc         1 RBT       0.058700
     71 H23          1.1370     0.3890    -2.0750 h1         1 RBT       0.036700
     72 H24          4.0140    -0.5580    -2.2810 hc         1 RBT       0.067700
     73 H25          4.5830     1.9850    -2.1040 h1         1 RBT       0.066700
     74 H26          2.0460     2.0660    -0.4560 hc         1 RBT       0.076700
     75 H27          4.5590     3.4190    -0.1080 h1         1 RBT       0.042700
     76 H28          1.9980     4.2850     1.3140 ha         1 RBT       0.207000
     77 H29          4.2360     2.3020     2.1300 h4         1 RBT       0.176000
     78 H301        -5.2710    -5.4470     0.9330 hc         1 RBT       0.047700
     79 H302        -4.7600    -6.9850     0.2470 hc         1 RBT       0.047700
     80 H303        -3.8690    -6.3000     1.6090 hc         1 RBT       0.047700
     81 H311         0.7810    -5.7060    -3.9420 hc         1 RBT       0.037700
     82 H312         1.8520    -4.3020    -4.0910 hc         1 RBT       0.037700
     83 H313         1.8920    -5.2970    -2.6170 hc         1 RBT       0.037700
     84 H321        -0.5070    -1.0050    -3.6630 hc         1 RBT       0.035367
     85 H322         0.8720    -0.2440    -4.4560 hc         1 RBT       0.035367
     86 H323         0.5030    -1.9330    -4.7890 hc         1 RBT       0.035367
     87 H331         2.6110     1.3160    -4.2280 hc         1 RBT       0.039033
     88 H332         4.3560     1.0270    -4.1590 hc         1 RBT       0.039033
     89 H333         3.2690    -0.3010    -4.5380 hc         1 RBT       0.039033
     90 H341         1.3370     2.4440    -2.7570 hc         1 RBT       0.040033
     91 H342         1.2860     3.9670    -1.8950 hc         1 RBT       0.040033
     92 H343         2.6300     3.6360    -3.0130 hc         1 RBT       0.040033
     93 H361         5.2690    -0.8930     1.3280 hc         1 RBT       0.067033
     94 H362         7.0340    -0.6850     0.9600 hc         1 RBT       0.067033
     95 H363         6.0030     0.5940     1.7280 hc         1 RBT       0.067033
     96 H371         3.8890     6.1500     0.9000 h1         1 RBT       0.031033
     97 H372         5.2180     5.7450    -0.2150 h1         1 RBT       0.031033
     98 H373         4.0030     6.9550    -0.6780 h1         1 RBT       0.031033
     99 H391        -1.3730     1.9190    -1.3700 hc         1 RBT       0.078700
    100 H392        -1.1060     0.1950    -1.3920 hc         1 RBT       0.078700
    101 H401        -4.7630     1.6590     0.3660 hc         1 RBT       0.078700
    102 H402        -3.6210     2.8310    -0.2620 hc         1 RBT       0.078700
    103 H411        -1.8960     0.9450    -3.6190 h1         1 RBT       0.053450
    104 H412        -3.0640    -0.1450    -2.8900 h1         1 RBT       0.053450
    105 H421        -5.4760     2.4760    -1.8850 h1         1 RBT       0.053450
    106 H422        -5.1700     0.7390    -1.8970 h1         1 RBT       0.053450
    107 H431        -4.0860     3.9590    -3.1390 h1         1 RBT       0.034700
    108 H432        -2.6600     3.6090    -2.1750 h1         1 RBT       0.034700
    109 H44         -1.4010     2.9820    -4.2130 hc         1 RBT       0.043700
    110 H451        -2.3400     3.3920    -6.4890 hc         1 RBT       0.034867
    111 H452        -3.2380     2.1130    -5.6550 hc         1 RBT       0.034867
    112 H453        -3.9310     3.7450    -5.7790 hc         1 RBT       0.034867
    113 H461        -1.3320     5.3140    -3.4100 hc         1 RBT       0.034867
    114 H462        -1.1880     5.2410    -5.1760 hc         1 RBT       0.034867
    115 H463        -2.7270     5.7270    -4.4310 hc         1 RBT       0.034867
    116 HN1         -3.6880    -4.1530     1.8860 hn         1 RBT       0.332500
    117 HN2         -3.2790    -1.3130    -0.7030 hn         1 RBT       0.526000
    118 HO2         -2.0980    -2.9000     5.4210 ho         1 RBT       0.533000
    119 HO9          1.1340    -1.2910    -0.4780 ho         1 RBT       0.465000
    120 H10         -1.1060    -2.7180    -1.2660 ho         1 RBT       0.488000
    121 C35          5.6400     0.3570    -0.3710 c          1 RBT       0.598100
    122 C37          4.1530     6.0020    -0.1550 c3         1 RBT       0.144900
    123 C43         -3.2130     3.2950    -3.0690 c3         1 RBT       0.172800
@<TRIPOS>BOND
     1     1     2 1   
     2     1     9 1   
     3     1    48 2   
     4     2     3 2   
     5     2    44 1   
     6     3     4 1   
     7     3    45 1   
     8     4    10 1   
     9     4    46 2   
    10     5     6 ar  
    11     5    10 ar  
    12     5    11 1   
    13     6     7 ar  
    14     6    50 1   
    15     7     8 ar  
    16     7    14 1   
    17     8     9 ar  
    18     8    49 1   
    19     9    10 ar  
    20    11    12 1   
    21    11    51 2   
    22    12    13 1   
    23    12    50 1   
    24    12    52 1   
    25    13    59 1   
    26    13    60 1   
    27    13    61 1   
    28    14    62 1   
    29    14    63 1   
    30    14    64 1   
    31    15    16 1   
    32    15    44 1   
    33    15    58 2   
    34    16    17 2   
    35    16    30 1   
    36    17    18 1   
    37    17    65 1   
    38    18    19 2   
    39    18    66 1   
    40    19    20 1   
    41    19    67 1   
    42    20    21 1   
    43    20    31 1   
    44    20    68 1   
    45    21    22 1   
    46    21    57 1   
    47    21    69 1   
    48    22    23 1   
    49    22    32 1   
    50    22    70 1   
    51    23    24 1   
    52    23    56 1   
    53    23    71 1   
    54    24    25 1   
    55    24    33 1   
    56    24    72 1   
    57    25    26 1   
    58    25    54 1   
    59    25    73 1   
    60    26    27 1   
    61    26    34 1   
    62    26    74 1   
    63    27    28 1   
    64    27    53 1   
    65    27    75 1   
    66    28    29 2   
    67    28    76 1   
    68    29    52 1   
    69    29    77 1   
    70    30    78 1   
    71    30    79 1   
    72    30    80 1   
    73    31    81 1   
    74    31    82 1   
    75    31    83 1   
    76    32    84 1   
    77    32    85 1   
    78    32    86 1   
    79    33    87 1   
    80    33    88 1   
    81    33    89 1   
    82    34    90 1   
    83    34    91 1   
    84    34    92 1   
    85    35    93 1   
    86    35    94 1   
    87    35    95 1   
    88    35   121 1   
    89    36    37 1   
    90    36    38 1   
    91    36    45 1   
    92    36    46 1   
    93    37    39 1   
    94    37    99 1   
    95    37   100 1   
    96    38    40 1   
    97    38   101 1   
    98    38   102 1   
    99    39    47 1   
   100    39   103 1   
   101    39   104 1   
   102    40    47 1   
   103    40   105 1   
   104    40   106 1   
   105    41    42 1   
   106    41    43 1   
   107    41   109 1   
   108    41   123 1   
   109    42   110 1   
   110    42   111 1   
   111    42   112 1   
   112    43   113 1   
   113    43   114 1   
   114    43   115 1   
   115    44   116 1   
   116    45   117 1   
   117    47   123 1   
   118    49   118 1   
   119    53   122 1   
   120    54   121 1   
   121    55   121 2   
   122    56   119 1   
   123    57   120 1   
   124    96   122 1   
   125    97   122 1   
   126    98   122 1   
   127   107   123 1   
   128   108   123 1   
@<TRIPOS>SUBSTRUCTURE
     1 RBT         1 TEMP              0 ****  ****    0 ROOT
