@<TRIPOS>MOLECULE
RBV
   29    30     1     0     0
SMALL
No Charge or Current Charge


@<TRIPOS>ATOM
      1 N1           0.4570    -0.6970    -0.6050 na         1 RBV      -0.073700
      2 N2           1.0240     0.1970     0.2550 nc         1 RBV      -0.474800
      3 C3           2.3130     0.1780    -0.0910 cd         1 RBV       0.464500
      4 N3           4.6250     0.9310     0.1690 nt         1 RBV      -0.593000
      5 O3           3.1150     1.8260     1.5440 o          1 RBV      -0.589100
      6 N4           2.5730    -0.7100    -1.1410 nd         1 RBV      -0.704000
      7 C5           1.3980    -1.2380    -1.4390 cc         1 RBV       0.436400
      8 C6           3.3460     1.0500     0.6220 c          1 RBV       0.549600
      9 C1          -0.9810    -1.0130    -0.5930 c5         1 RBV       0.324300
     10 C2          -1.6460    -1.2370     0.8180 c5         1 RBV       0.083300
     11 O2          -1.7010    -2.6190     1.2390 oh         1 RBV      -0.708000
     12 C7          -3.0770    -0.6820     0.5720 c5         1 RBV       0.111300
     13 O1          -3.8810    -1.6780    -0.0730 oh         1 RBV      -0.705000
     14 C4          -2.7540     0.5440    -0.3400 c5         1 RBV       0.165300
     15 O4          -1.7340     0.0440    -1.2460 os         1 RBV      -0.416000
     16 C8          -2.2330     1.7960     0.4330 c3         1 RBV       0.146600
     17 O5          -2.1550     2.9470    -0.4290 oh         1 RBV      -0.701000
     18 HN3          4.8240     0.2940    -0.5900 hn         1 RBV       0.326500
     19 HN3A         5.3590     1.4770     0.5930 hn         1 RBV       0.326500
     20 H5           1.1750    -1.9730    -2.2030 h5         1 RBV       0.070100
     21 H1          -1.0900    -1.9290    -1.1870 h2         1 RBV       0.095700
     22 H2          -1.1420    -0.6250     1.5810 h1         1 RBV       0.083700
     23 HO2         -0.8410    -2.8360     1.6750 ho         1 RBV       0.522000
     24 H3          -3.5480    -0.3660     1.5140 h1         1 RBV       0.060700
     25 HO3         -3.4910    -2.5280     0.2540 ho         1 RBV       0.521000
     26 H4          -3.6390     0.8440    -0.9170 h1         1 RBV       0.107700
     27 H6          -2.9250     2.0010     1.2610 h1         1 RBV       0.029700
     28 H5'A        -1.2520     1.5810     0.8740 h1         1 RBV       0.029700
     29 HO5         -1.7570     3.6790     0.0990 ho         1 RBV       0.510000
@<TRIPOS>BOND
     1     1     2 1   
     2     1     7 1   
     3     1     9 1   
     4     2     3 2   
     5     3     6 1   
     6     3     8 1   
     7     4     8 1   
     8     4    18 1   
     9     4    19 1   
    10     5     8 2   
    11     6     7 2   
    12     7    20 1   
    13     9    10 1   
    14     9    15 1   
    15     9    21 1   
    16    10    11 1   
    17    10    12 1   
    18    10    22 1   
    19    11    23 1   
    20    12    13 1   
    21    12    14 1   
    22    12    24 1   
    23    13    25 1   
    24    14    15 1   
    25    14    16 1   
    26    14    26 1   
    27    16    17 1   
    28    16    27 1   
    29    16    28 1   
    30    17    29 1   
@<TRIPOS>SUBSTRUCTURE
     1 RBV         1 TEMP              0 ****  ****    0 ROOT
