@<TRIPOS>MOLECULE
RBV
   29    30     1     0     0
SMALL
bcc


@<TRIPOS>ATOM
      1 N1           0.4920    -0.6990    -0.6090 na         1 RBV      -0.044400
      2 N2           1.0220     0.2150     0.1970 nc         1 RBV      -0.474800
      3 C3           2.2940     0.1790    -0.1170 cd         1 RBV       0.464500
      4 N3           4.5370     0.9030     0.0940 nt         1 RBV      -0.660000
      5 O3           2.9550     1.8510     1.4160 o          1 RBV      -0.589100
      6 N4           2.6060    -0.7120    -1.0850 nd         1 RBV      -0.704000
      7 C5           1.4470    -1.2440    -1.3760 cc         1 RBV       0.436400
      8 C6           3.2900     1.0640     0.5460 c          1 RBV       0.616600
      9 C1          -0.9310    -0.9620    -0.6430 c5         1 RBV       0.271800
     10 C2          -1.5150    -1.2500     0.7430 c5         1 RBV       0.060100
     11 O2          -1.4620    -2.6220     1.0040 oh         1 RBV      -0.585800
     12 C7          -2.9280    -0.6790     0.6010 c5         1 RBV       0.088100
     13 O1          -3.7570    -1.5660    -0.1020 oh         1 RBV      -0.582800
     14 C4          -2.6670     0.5380    -0.2730 c5         1 RBV       0.142100
     15 O4          -1.6040     0.1460    -1.1480 os         1 RBV      -0.369600
     16 C8          -2.3010     1.7730     0.5240 c3         1 RBV       0.123400
     17 O5          -2.0310     2.8140    -0.3810 oh         1 RBV      -0.578800
     18 HN3          4.7490     0.2460    -0.6370 hn         1 RBV       0.326500
     19 HN3A         5.2860     1.4720     0.4530 hn         1 RBV       0.326500
     20 H5           1.2510    -2.0080    -2.1130 h5         1 RBV       0.070100
     21 H1          -1.0490    -1.8290    -1.3020 h2         1 RBV       0.095700
     22 H2          -0.9690    -0.6750     1.4990 h1         1 RBV       0.083700
     23 HO2         -1.5280    -2.7590     1.9550 ho         1 RBV       0.423000
     24 H3          -3.3560    -0.4050     1.5730 h1         1 RBV       0.060700
     25 HO3         -3.6110    -2.4520     0.2510 ho         1 RBV       0.422000
     26 H4          -3.5390     0.7640    -0.8940 h1         1 RBV       0.107700
     27 H6          -3.1500     2.0080     1.1790 h1         1 RBV       0.029700
     28 H5'A        -1.4410     1.5710     1.1740 h1         1 RBV       0.029700
     29 HO5         -1.7290     3.5750     0.1220 ho         1 RBV       0.411000
@<TRIPOS>BOND
     1     1     2 1   
     2     1     7 1   
     3     1     9 1   
     4     2     3 2   
     5     3     6 1   
     6     3     8 1   
     7     4     8 1   
     8     4    18 1   
     9     4    19 1   
    10     5     8 2   
    11     6     7 2   
    12     7    20 1   
    13     9    10 1   
    14     9    15 1   
    15     9    21 1   
    16    10    11 1   
    17    10    12 1   
    18    10    22 1   
    19    11    23 1   
    20    12    13 1   
    21    12    14 1   
    22    12    24 1   
    23    13    25 1   
    24    14    15 1   
    25    14    16 1   
    26    14    26 1   
    27    16    17 1   
    28    16    27 1   
    29    16    28 1   
    30    17    29 1   
@<TRIPOS>SUBSTRUCTURE
     1 RBV         1 TEMP              0 ****  ****    0 ROOT
