@<TRIPOS>MOLECULE
RBW
   46    48     1     0     0
SMALL
No Charge or Current Charge


@<TRIPOS>ATOM
      1 C11         30.7090     4.9660    17.5430 cc         1 RBW      -0.158400
      2 C12         30.1200     4.0380    16.6280 ca         1 RBW      -0.078800
      3 C13         28.8550     3.4390    16.6370 ca         1 RBW      -0.077000
      4 C14         28.5420     2.5570    15.5840 ca         1 RBW      -0.157000
      5 C15         29.4870     2.3020    14.5640 ca         1 RBW      -0.119000
      6 C16         30.1050     5.5080    18.7570 ca         1 RBW       0.087200
      7 C17         29.7430     4.6460    19.8060 ca         1 RBW      -0.123000
      8 C18         29.1240     5.1510    20.9620 ca         1 RBW      -0.088000
      9 C19         28.8500     6.5270    21.0820 ca         1 RBW      -0.125300
     10 C22         28.2420     8.0420    25.0270 c3         1 RBW      -0.353100
     11 C25         29.2030     7.3920    20.0180 ca         1 RBW       0.155000
     12 C27         29.8190     6.8800    18.8650 ca         1 RBW      -0.066000
     13 C01         31.2540     3.1050    12.0860 c3         1 RBW      -0.083100
     14 C03         32.1950     1.1530    13.4430 c3         1 RBW      -0.083100
     15 C04         30.7610     2.9230    14.5750 ca         1 RBW      -0.086300
     16 C05         31.0400     3.8000    15.6450 ca         1 RBW      -0.065200
     17 C07         32.0060     5.2500    17.0940 cd         1 RBW      -0.052300
     18 C08         33.0440     6.1230    17.7470 c          1 RBW       0.721200
     19 C20         28.1720     7.0390    22.3580 c3         1 RBW      -0.199100
     20 N06         32.2020     4.5270    15.8860 na         1 RBW      -0.194700
     21 O09         34.1190     6.2390    17.1720 o          1 RBW      -0.696000
     22 O10         32.8140     6.6730    18.8140 o          1 RBW      -0.696000
     23 O23         30.1490     8.5830    23.2830 o          1 RBW      -0.506000
     24 O24         29.9480     6.2170    24.1730 o          1 RBW      -0.506000
     25 S21         29.3090     7.4550    23.7080 s6         1 RBW       1.066000
     26 Cl1         28.8710     9.1240    20.0920 cl         1 RBW      -0.225000
     27 H131        28.1380     3.6480    17.4270 ha         1 RBW       0.105000
     28 H141        27.5700     2.0720    15.5570 ha         1 RBW       0.090000
     29 H151        29.2230     1.6170    13.7610 ha         1 RBW       0.091000
     30 H171        29.9440     3.5810    19.7220 ha         1 RBW       0.118000
     31 H181        28.8550     4.4680    21.7650 ha         1 RBW       0.106000
     32 H221        28.8800     8.3070    25.8770 h1         1 RBW       0.093700
     33 H222        27.6990     8.9170    24.6550 h1         1 RBW       0.093700
     34 H223        27.5540     7.2310    25.2890 h1         1 RBW       0.093700
     35 H271        30.0780     7.5500    18.0510 ha         1 RBW       0.151000
     36 H011        30.9860     4.1680    12.1160 hc         1 RBW       0.030033
     37 H013        32.0210     2.9690    11.3140 hc         1 RBW       0.030033
     38 H012        30.3660     2.5350    11.7880 hc         1 RBW       0.030033
     39 H021        32.6960     3.2130    13.6510 hc         1 RBW       0.048700
     40 H033        32.5860     0.8510    14.4220 hc         1 RBW       0.030033
     41 H032        31.3430     0.5070    13.1980 hc         1 RBW       0.030033
     42 H031        32.9790     0.9810    12.6960 hc         1 RBW       0.030033
     43 H202        27.5810     7.9400    22.1630 h1         1 RBW       0.088700
     44 H201        27.4990     6.2730    22.7610 h1         1 RBW       0.088700
     45 H061        33.0490     4.5310    15.3280 hn         1 RBW       0.370000
     46 C02         31.7800     2.6410    13.4630 c3         1 RBW      -0.009400
@<TRIPOS>BOND
     1     1     2 1   
     2     1     6 1   
     3     1    17 2   
     4     2     3 ar  
     5     2    16 ar  
     6     3     4 ar  
     7     3    27 1   
     8     4     5 ar  
     9     4    28 1   
    10     5    15 ar  
    11     5    29 1   
    12     6     7 ar  
    13     6    12 ar  
    14     7     8 ar  
    15     7    30 1   
    16     8     9 ar  
    17     8    31 1   
    18     9    11 ar  
    19     9    19 1   
    20    10    25 1   
    21    10    32 1   
    22    10    33 1   
    23    10    34 1   
    24    11    12 ar  
    25    11    26 1   
    26    12    35 1   
    27    13    36 1   
    28    13    37 1   
    29    13    38 1   
    30    13    46 1   
    31    14    40 1   
    32    14    41 1   
    33    14    42 1   
    34    14    46 1   
    35    15    16 ar  
    36    15    46 1   
    37    16    20 1   
    38    17    18 1   
    39    17    20 1   
    40    18    21 1   
    41    18    22 1   
    42    19    25 1   
    43    19    43 1   
    44    19    44 1   
    45    20    45 1   
    46    23    25 2   
    47    24    25 2   
    48    39    46 1   
@<TRIPOS>SUBSTRUCTURE
     1 RBW         1 TEMP              0 ****  ****    0 ROOT
