@<TRIPOS>MOLECULE
RBW
   46    48     1     0     0
SMALL
abcg2


@<TRIPOS>ATOM
      1 C11         30.6530     5.0690    17.5300 cc         1 RBW      -0.158400
      2 C12         30.0080     4.1570    16.6280 ca         1 RBW      -0.078800
      3 C13         28.7400     3.5630    16.5860 ca         1 RBW      -0.077000
      4 C14         28.4400     2.7300    15.5300 ca         1 RBW      -0.157000
      5 C15         29.3740     2.4750    14.5090 ca         1 RBW      -0.119000
      6 C16         30.0290     5.6150    18.7370 ca         1 RBW       0.087200
      7 C17         29.3560     4.7770    19.6280 ca         1 RBW      -0.123000
      8 C18         28.7380     5.2890    20.7560 ca         1 RBW      -0.088000
      9 C19         28.7560     6.6510    21.0420 ca         1 RBW      -0.125300
     10 C22         28.4560     7.7450    25.0280 c3         1 RBW      -0.353100
     11 C25         29.4210     7.4810    20.1400 ca         1 RBW       0.155000
     12 C27         30.0380     6.9830    19.0070 ca         1 RBW      -0.066000
     13 C01         31.0990     2.3200    12.1130 c3         1 RBW      -0.083100
     14 C03         32.7030     1.7560    13.9590 c3         1 RBW      -0.083100
     15 C04         30.6340     3.0470    14.5030 ca         1 RBW      -0.086300
     16 C05         30.9190     3.8940    15.5830 ca         1 RBW      -0.065200
     17 C07         31.9060     5.3200    17.0080 cd         1 RBW      -0.052300
     18 C08         33.0930     6.1250    17.4910 c          1 RBW       0.721200
     19 C20         28.1160     7.1550    22.2920 c3         1 RBW      -0.199100
     20 N06         32.0440     4.6130    15.8500 na         1 RBW      -0.194700
     21 O09         34.0340     6.1980    16.6760 o          1 RBW      -0.696000
     22 O10         33.0250     6.6090    18.6320 o          1 RBW      -0.696000
     23 O23         30.4760     7.8440    23.3270 o          1 RBW      -0.506000
     24 O24         29.5280     5.6030    23.9160 o          1 RBW      -0.506000
     25 S21         29.3100     7.0230    23.6440 s6         1 RBW       1.066000
     26 CL1         29.4660     9.1970    20.3950 cl         1 RBW      -0.225000
     27 H131        28.0060     3.7540    17.3590 ha         1 RBW       0.105000
     28 H141        27.4660     2.2600    15.4770 ha         1 RBW       0.090000
     29 H151        29.0850     1.8120    13.7040 ha         1 RBW       0.091000
     30 H171        29.3320     3.7100    19.4500 ha         1 RBW       0.118000
     31 H181        28.2240     4.6170    21.4310 ha         1 RBW       0.106000
     32 H221        29.1230     7.6850    25.8870 h1         1 RBW       0.093700
     33 H222        28.2230     8.7840    24.8090 h1         1 RBW       0.093700
     34 H223        27.5450     7.1830    25.2260 h1         1 RBW       0.093700
     35 H271        30.5260     7.6610    18.3220 ha         1 RBW       0.151000
     36 H011        30.3570     3.0220    11.7330 hc         1 RBW       0.030033
     37 H013        31.8940     2.2400    11.3710 hc         1 RBW       0.030033
     38 H012        30.6280     1.3390    12.1900 hc         1 RBW       0.030033
     39 H021        32.2130     3.7150    13.2600 hc         1 RBW       0.048700
     40 H033        33.1620     2.0740    14.8960 hc         1 RBW       0.030033
     41 H032        32.2270     0.7890    14.1320 hc         1 RBW       0.030033
     42 H031        33.5020     1.6140    13.2300 hc         1 RBW       0.030033
     43 H202        27.8030     8.1970    22.2310 h1         1 RBW       0.088700
     44 H201        27.2560     6.5490    22.5820 h1         1 RBW       0.088700
     45 H061        32.8950     4.6410    15.3100 hn         1 RBW       0.370000
     46 C02         31.6800     2.7760    13.4470 c3         1 RBW      -0.009400
@<TRIPOS>BOND
     1     1     2 1   
     2     1     6 1   
     3     1    17 2   
     4     2     3 ar  
     5     2    16 ar  
     6     3     4 ar  
     7     3    27 1   
     8     4     5 ar  
     9     4    28 1   
    10     5    15 ar  
    11     5    29 1   
    12     6     7 ar  
    13     6    12 ar  
    14     7     8 ar  
    15     7    30 1   
    16     8     9 ar  
    17     8    31 1   
    18     9    11 ar  
    19     9    19 1   
    20    10    25 1   
    21    10    32 1   
    22    10    33 1   
    23    10    34 1   
    24    11    12 ar  
    25    11    26 1   
    26    12    35 1   
    27    13    36 1   
    28    13    37 1   
    29    13    38 1   
    30    13    46 1   
    31    14    40 1   
    32    14    41 1   
    33    14    42 1   
    34    14    46 1   
    35    15    16 ar  
    36    15    46 1   
    37    16    20 1   
    38    17    18 1   
    39    17    20 1   
    40    18    21 1   
    41    18    22 1   
    42    19    25 1   
    43    19    43 1   
    44    19    44 1   
    45    20    45 1   
    46    23    25 2   
    47    24    25 2   
    48    39    46 1   
@<TRIPOS>SUBSTRUCTURE
     1 RBW         1 TEMP              0 ****  ****    0 ROOT
