@<TRIPOS>MOLECULE
RBX
   54    57     1     0     0
SMALL
No Charge or Current Charge


@<TRIPOS>ATOM
      1 N1         -21.7940     6.9550    29.5830 n3         1 RBX      -0.787500
      2 N3         -16.8200     4.1090    26.8110 nb         1 RBX      -0.647000
      3 C4         -22.4630     4.8220    28.4610 c6         1 RBX      -0.097400
      4 C5         -21.1620     4.4650    27.7040 c          1 RBX       0.609100
      5 C6         -18.8830     5.3910    27.0510 ca         1 RBX      -0.081000
      6 C7         -18.1030     4.2240    27.2290 ca         1 RBX       0.321900
      7 C8         -16.2640     5.1740    26.1900 ca         1 RBX       0.344900
      8 C10        -16.3260     7.4540    25.3030 ca         1 RBX      -0.087000
      9 C13        -19.0020     7.6900    26.1390 ca         1 RBX      -0.099000
     10 C15        -22.4080     4.1250    29.8280 ca         1 RBX      -0.049300
     11 C17        -22.5140     2.0830    31.1610 ca         1 RBX       0.126000
     12 C20        -22.1450     4.8700    30.9980 ca         1 RBX      -0.062300
     13 C21        -21.9890     6.3930    30.9440 c6         1 RBX       0.258100
     14 Cl         -22.7440     0.3420    31.2610 cl         1 RBX      -0.207000
     15 C16        -22.5940     2.7300    29.9190 ca         1 RBX      -0.083000
     16 C18        -22.2490     2.8220    32.3240 ca         1 RBX      -0.090000
     17 C19        -22.0680     4.2130    32.2420 ca         1 RBX      -0.101000
     18 S          -21.7930     8.6630    29.5580 s6         1 RBX       1.350200
     19 O          -21.4030     9.1240    28.2260 o          1 RBX      -0.579500
     20 O1         -23.0330     9.0970    30.2040 o          1 RBX      -0.579500
     21 N          -20.4800     8.9460    30.6220 n3         1 RBX      -0.797500
     22 C2         -20.3830    10.3310    31.1210 c3         1 RBX       0.210100
     23 C1         -19.1790     8.3150    30.2850 c3         1 RBX       0.214800
     24 C          -18.2930     9.1020    29.2950 c3         1 RBX      -0.124100
     25 C3         -22.7250     6.3440    28.6130 c6         1 RBX       0.225800
     26 O2         -21.0070     3.3470    27.2220 o          1 RBX      -0.560100
     27 N2         -20.2110     5.4640    27.5580 ns         1 RBX      -0.158000
     28 C14        -18.2950     6.4960    26.3930 ca         1 RBX      -0.035000
     29 C12        -18.3710     8.7600    25.4830 ca         1 RBX      -0.085000
     30 C11        -17.0340     8.6450    25.0680 ca         1 RBX      -0.109000
     31 C9         -16.9560     6.3790    25.9600 ca         1 RBX      -0.090000
     32 H1         -23.2840     4.3660    27.8930 hc         1 RBX       0.075700
     33 H2         -18.5040     3.3560    27.7510 h4         1 RBX       0.041100
     34 H3         -15.2310     5.0540    25.8650 h4         1 RBX       0.021100
     35 H4         -15.2930     7.3670    24.9720 ha         1 RBX       0.118000
     36 H5         -20.0390     7.8000    26.4410 ha         1 RBX       0.125000
     37 H6         -21.1490     6.6670    31.5970 h1         1 RBX       0.067200
     38 H7         -22.8910     6.8200    31.4060 h1         1 RBX       0.067200
     39 H8         -22.7960     2.1450    29.0250 ha         1 RBX       0.130000
     40 H9         -22.1890     2.3190    33.2850 ha         1 RBX       0.133000
     41 H10        -21.8730     4.7830    33.1490 ha         1 RBX       0.120000
     42 H11        -19.5860    10.4190    31.8720 h1         1 RBX       0.050033
     43 H12        -20.1650    11.0320    30.3040 h1         1 RBX       0.050033
     44 H13        -21.3220    10.6440    31.5970 h1         1 RBX       0.050033
     45 H14        -19.3250     7.3040    29.8830 h1         1 RBX       0.064200
     46 H15        -18.5980     8.1870    31.2080 h1         1 RBX       0.064200
     47 H16        -17.4100     8.5090    29.0300 hc         1 RBX       0.048700
     48 H17        -18.8300     9.3390    28.3730 hc         1 RBX       0.048700
     49 H18        -17.9450    10.0410    29.7410 hc         1 RBX       0.048700
     50 H19        -22.6360     6.8170    27.6230 h1         1 RBX       0.065700
     51 H20        -23.7650     6.4980    28.9400 h1         1 RBX       0.065700
     52 H21        -20.4690     6.3590    27.9570 hn         1 RBX       0.154000
     53 H22        -18.9200     9.6800    25.2950 ha         1 RBX       0.122000
     54 H23        -16.5480     9.4750    24.5610 ha         1 RBX       0.118000
@<TRIPOS>BOND
     1     1    13 1   
     2     1    18 1   
     3     1    25 1   
     4     2     6 ar  
     5     2     7 ar  
     6     3     4 1   
     7     3    10 1   
     8     3    25 1   
     9     3    32 1   
    10     4    26 2   
    11     4    27 1   
    12     5     6 ar  
    13     5    27 1   
    14     5    28 ar  
    15     6    33 1   
    16     7    31 ar  
    17     7    34 1   
    18     8    30 ar  
    19     8    31 ar  
    20     8    35 1   
    21     9    28 ar  
    22     9    29 ar  
    23     9    36 1   
    24    10    12 ar  
    25    10    15 ar  
    26    11    14 1   
    27    11    15 ar  
    28    11    16 ar  
    29    12    13 1   
    30    12    17 ar  
    31    13    37 1   
    32    13    38 1   
    33    15    39 1   
    34    16    17 ar  
    35    16    40 1   
    36    17    41 1   
    37    18    19 2   
    38    18    20 2   
    39    18    21 1   
    40    21    22 1   
    41    21    23 1   
    42    22    42 1   
    43    22    43 1   
    44    22    44 1   
    45    23    24 1   
    46    23    45 1   
    47    23    46 1   
    48    24    47 1   
    49    24    48 1   
    50    24    49 1   
    51    25    50 1   
    52    25    51 1   
    53    27    52 1   
    54    28    31 ar  
    55    29    30 ar  
    56    29    53 1   
    57    30    54 1   
@<TRIPOS>SUBSTRUCTURE
     1 RBX         1 TEMP              0 ****  ****    0 ROOT
