@<TRIPOS>MOLECULE
RBX
   54    57     1     0     0
SMALL
abcg2


@<TRIPOS>ATOM
      1 N1         -21.9020     6.9520    29.7510 n3         1 RBX      -0.787500
      2 N3         -16.4180     4.7450    26.9320 nb         1 RBX      -0.647000
      3 C4         -22.0320     4.8170    28.6330 c6         1 RBX      -0.097400
      4 C5         -20.5070     4.7440    28.4470 c          1 RBX       0.609100
      5 C6         -18.7280     5.4170    26.8810 ca         1 RBX      -0.081000
      6 C7         -17.7270     4.5370    27.2190 ca         1 RBX       0.321900
      7 C8         -16.0900     5.8380    26.2840 ca         1 RBX       0.344900
      8 C10        -16.6260     7.9880    25.1870 ca         1 RBX      -0.087000
      9 C13        -19.3330     7.6050    25.8080 ca         1 RBX      -0.099000
     10 C15        -22.4290     4.1900    29.9450 ca         1 RBX      -0.049300
     11 C17        -22.9980     2.2470    31.2370 ca         1 RBX       0.126000
     12 C20        -22.5610     4.9830    31.0850 ca         1 RBX      -0.062300
     13 C21        -22.3670     6.4810    31.0580 c6         1 RBX       0.258100
     14 CL         -23.2770     0.5190    31.3270 cl         1 RBX      -0.207000
     15 C16        -22.6510     2.8170    30.0250 ca         1 RBX      -0.083000
     16 C18        -23.1320     3.0190    32.3850 ca         1 RBX      -0.090000
     17 C19        -22.9130     4.3850    32.2950 ca         1 RBX      -0.101000
     18 S          -21.4920     8.5380    29.6550 s6         1 RBX       1.350200
     19 O          -21.2670     8.8060    28.2540 o          1 RBX      -0.579500
     20 O1         -22.4470     9.3770    30.3450 o          1 RBX      -0.579500
     21 N          -20.1250     8.5710    30.5340 n3         1 RBX      -0.797500
     22 C2         -19.8710     9.7050    31.4260 c3         1 RBX       0.210100
     23 C1         -18.9480     7.8660    29.9960 c3         1 RBX       0.214800
     24 C          -18.0420     8.7180    29.1160 c3         1 RBX      -0.124100
     25 C3         -22.5040     6.2760    28.6020 c6         1 RBX       0.225800
     26 O2         -19.7550     4.3700    29.3320 o          1 RBX      -0.560100
     27 N2         -20.0730     5.1690    27.2260 ns         1 RBX      -0.158000
     28 C14        -18.3980     6.6120    26.1810 ca         1 RBX      -0.035000
     29 C12        -18.9160     8.7330    25.1470 ca         1 RBX      -0.085000
     30 C11        -17.5560     8.9290    24.8280 ca         1 RBX      -0.109000
     31 C9         -17.0240     6.8160    25.8700 ca         1 RBX      -0.090000
     32 H1         -22.5040     4.2820    27.8050 hc         1 RBX       0.075700
     33 H2         -17.9650     3.6240    27.7450 h4         1 RBX       0.041100
     34 H3         -15.0380     5.9890    26.0580 h4         1 RBX       0.021100
     35 H4         -15.5760     8.1270    24.9590 ha         1 RBX       0.118000
     36 H5         -20.3750     7.5020    26.0720 ha         1 RBX       0.125000
     37 H6         -21.6300     6.7700    31.8080 h1         1 RBX       0.067200
     38 H7         -23.3140     6.9660    31.3240 h1         1 RBX       0.067200
     39 H8         -22.5500     2.2010    29.1410 ha         1 RBX       0.130000
     40 H9         -23.4030     2.5620    33.3260 ha         1 RBX       0.133000
     41 H10        -23.0190     4.9970    33.1830 ha         1 RBX       0.120000
     42 H11        -19.0790     9.4020    32.1110 h1         1 RBX       0.050033
     43 H12        -19.5490    10.6000    30.8890 h1         1 RBX       0.050033
     44 H13        -20.7640     9.9310    31.9980 h1         1 RBX       0.050033
     45 H14        -19.3070     6.9990    29.4470 h1         1 RBX       0.064200
     46 H15        -18.3960     7.4890    30.8600 h1         1 RBX       0.064200
     47 H16        -17.2030     8.1120    28.7700 hc         1 RBX       0.048700
     48 H17        -18.5800     9.0840    28.2430 hc         1 RBX       0.048700
     49 H18        -17.6390     9.5700    29.6660 hc         1 RBX       0.048700
     50 H19        -22.1960     6.7840    27.6970 h1         1 RBX       0.065700
     51 H20        -23.5970     6.3040    28.6570 h1         1 RBX       0.065700
     52 H21        -20.7740     5.4730    26.5680 hn         1 RBX       0.154000
     53 H22        -19.6410     9.4910    24.8770 ha         1 RBX       0.122000
     54 H23        -17.2510     9.8280    24.3080 ha         1 RBX       0.118000
@<TRIPOS>BOND
     1     1    13 1   
     2     1    18 1   
     3     1    25 1   
     4     2     6 ar  
     5     2     7 ar  
     6     3     4 1   
     7     3    10 1   
     8     3    25 1   
     9     3    32 1   
    10     4    26 2   
    11     4    27 1   
    12     5     6 ar  
    13     5    27 1   
    14     5    28 ar  
    15     6    33 1   
    16     7    31 ar  
    17     7    34 1   
    18     8    30 ar  
    19     8    31 ar  
    20     8    35 1   
    21     9    28 ar  
    22     9    29 ar  
    23     9    36 1   
    24    10    12 ar  
    25    10    15 ar  
    26    11    14 1   
    27    11    15 ar  
    28    11    16 ar  
    29    12    13 1   
    30    12    17 ar  
    31    13    37 1   
    32    13    38 1   
    33    15    39 1   
    34    16    17 ar  
    35    16    40 1   
    36    17    41 1   
    37    18    19 2   
    38    18    20 2   
    39    18    21 1   
    40    21    22 1   
    41    21    23 1   
    42    22    42 1   
    43    22    43 1   
    44    22    44 1   
    45    23    24 1   
    46    23    45 1   
    47    23    46 1   
    48    24    47 1   
    49    24    48 1   
    50    24    49 1   
    51    25    50 1   
    52    25    51 1   
    53    27    52 1   
    54    28    31 ar  
    55    29    30 ar  
    56    29    53 1   
    57    30    54 1   
@<TRIPOS>SUBSTRUCTURE
     1 RBX         1 TEMP              0 ****  ****    0 ROOT
