@<TRIPOS>MOLECULE
RC0
   35    37     1     0     0
SMALL
No Charge or Current Charge


@<TRIPOS>ATOM
      1 N1          -2.4490    -1.6410    -0.5900 na         1 RC0       0.096300
      2 N3          -0.9120     0.1570    -0.4530 nb         1 RC0      -0.241000
      3 C5          -0.5890     1.4370    -0.6970 ca         1 RC0       0.425900
      4 C6          -2.7250    -2.1360     0.6810 cc         1 RC0      -0.079300
      5 C7          -2.9620    -3.4550     0.4230 cd         1 RC0      -0.233000
      6 C10         -2.8130    -3.6620    -0.9700 cd         1 RC0       0.272300
      7 C13          1.7870     1.2890     0.3000 ca         1 RC0       0.298000
      8 C15          4.1070     0.1550     1.4420 ca         1 RC0       0.096000
      9 C17         -2.7450    -1.3630     1.9740 c3         1 RC0      -0.021800
     10 C20          3.2800    -0.6220     0.6170 ca         1 RC0      -0.079000
     11 C21          3.7860     1.4990     1.6900 ca         1 RC0      -0.079000
     12 C22         -2.9800    -4.9620    -1.7030 c3         1 RC0      -0.122400
     13 C2          -2.1250    -0.3040    -0.8450 ca         1 RC0       0.301500
     14 N4          -2.4950    -2.5580    -1.6200 nc         1 RC0      -0.482800
     15 N8          -3.0370     0.4850    -1.4700 nb         1 RC0      -0.237000
     16 C9          -1.4890     2.3080    -1.3280 ca         1 RC0      -0.096000
     17 C12         -2.7240     1.7730    -1.7080 ca         1 RC0       0.174900
     18 Cl4         -1.1060     4.0060    -1.6390 cl         1 RC0      -0.172000
     19 Cl6          5.5500    -0.5520     2.1570 cl         1 RC0      -0.202000
     20 C18          2.6320     2.0630     1.1150 ca         1 RC0      -0.134500
     21 C19          2.1250    -0.0550     0.0440 ca         1 RC0      -0.134500
     22 H1          -3.2200    -4.2140     1.1540 ha         1 RC0       0.147000
     23 H2          -3.3820    -0.4750     1.8910 hc         1 RC0       0.057033
     24 H3          -3.1330    -1.9800     2.7930 hc         1 RC0       0.057033
     25 H4          -1.7360    -1.0340     2.2480 hc         1 RC0       0.057033
     26 H5           3.5350    -1.6600     0.4150 ha         1 RC0       0.130500
     27 H6           4.4300     2.1020     2.3260 ha         1 RC0       0.130500
     28 H7          -3.2440    -5.7720    -1.0130 hc         1 RC0       0.050033
     29 H8          -3.7740    -4.8890    -2.4550 hc         1 RC0       0.050033
     30 H9          -2.0530    -5.2460    -2.2140 hc         1 RC0       0.050033
     31 H10          0.7150     2.9140    -0.2960 hn         1 RC0       0.512000
     32 H11         -3.4790     2.3800    -2.2060 h4         1 RC0       0.040100
     33 H12          2.3900     3.1030     1.3150 ha         1 RC0       0.144500
     34 H13          1.5130    -0.6640    -0.6120 ha         1 RC0       0.144500
     35 N11          0.6560     1.8960    -0.2570 nu         1 RC0      -0.918900
@<TRIPOS>BOND
     1     1     4 1   
     2     1    13 1   
     3     1    14 1   
     4     2     3 ar  
     5     2    13 ar  
     6     3    16 ar  
     7     3    35 1   
     8     4     5 2   
     9     4     9 1   
    10     5     6 1   
    11     5    22 1   
    12     6    12 1   
    13     6    14 2   
    14     7    20 ar  
    15     7    21 ar  
    16     7    35 1   
    17     8    10 ar  
    18     8    11 ar  
    19     8    19 1   
    20     9    23 1   
    21     9    24 1   
    22     9    25 1   
    23    10    21 ar  
    24    10    26 1   
    25    11    20 ar  
    26    11    27 1   
    27    12    28 1   
    28    12    29 1   
    29    12    30 1   
    30    13    15 ar  
    31    15    17 ar  
    32    16    17 ar  
    33    16    18 1   
    34    17    32 1   
    35    20    33 1   
    36    21    34 1   
    37    31    35 1   
@<TRIPOS>SUBSTRUCTURE
     1 RC0         1 TEMP              0 ****  ****    0 ROOT
