@<TRIPOS>MOLECULE
RC0
   35    37     1     0     0
SMALL
bcc


@<TRIPOS>ATOM
      1 N1          -2.4430    -1.3860    -0.0680 na         1 RC0       0.045600
      2 N3          -0.8500     0.2700     0.0070 nb         1 RC0      -0.767000
      3 C5          -0.4970     1.5440     0.0230 ca         1 RC0       0.754200
      4 C6          -3.6680    -2.0000     0.0370 cc         1 RC0      -0.028600
      5 C7          -3.4070    -3.3390    -0.0450 cd         1 RC0      -0.316300
      6 C10         -2.0050    -3.4560    -0.1980 cd         1 RC0       0.337600
      7 C13          1.9490     1.0780     0.0920 ca         1 RC0       0.159600
      8 C15          4.3590    -0.3190     0.1570 ca         1 RC0       0.004400
      9 C17         -4.9880    -1.3420     0.2230 c3         1 RC0      -0.021800
     10 C20          3.1620    -1.0040     0.0430 ca         1 RC0      -0.097000
     11 C21          4.3670     1.0650     0.2380 ca         1 RC0      -0.097000
     12 C22         -1.2060    -4.7030    -0.3420 c3         1 RC0      -0.122400
     13 C2          -2.1340    -0.0250    -0.0430 ca         1 RC0       0.827500
     14 N4          -1.4390    -2.2760    -0.2080 nc         1 RC0      -0.482800
     15 N8          -3.1400     0.8230    -0.0750 nb         1 RC0      -0.763000
     16 C9          -1.5030     2.5370     0.0010 ca         1 RC0      -0.318200
     17 C12         -2.8050     2.1110    -0.0450 ca         1 RC0       0.503200
     18 CL4         -1.1160     4.2150     0.0330 cl         1 RC0      -0.080400
     19 CL6          5.8550    -1.1930     0.1990 cl         1 RC0      -0.110400
     20 C18          3.1690     1.7520     0.2050 ca         1 RC0      -0.152500
     21 C19          1.9570    -0.3170     0.0100 ca         1 RC0      -0.152500
     22 H1          -4.1330    -4.1350     0.0040 ha         1 RC0       0.165000
     23 H2          -5.2600    -0.7180    -0.6270 hc         1 RC0       0.057033
     24 H3          -5.7430    -2.1180     0.3360 hc         1 RC0       0.057033
     25 H4          -5.0110    -0.7100     1.1090 hc         1 RC0       0.057033
     26 H5           3.1540    -2.0830    -0.0210 ha         1 RC0       0.148500
     27 H6           5.2970     1.6100     0.3290 ha         1 RC0       0.148500
     28 H7          -1.3440    -5.3580     0.5190 hc         1 RC0       0.050033
     29 H8          -1.5150    -5.2650    -1.2240 hc         1 RC0       0.050033
     30 H9          -0.1450    -4.4790    -0.4330 hc         1 RC0       0.050033
     31 H10          0.9970     2.8740     0.0900 hn         1 RC0       0.456800
     32 H11         -3.6140     2.8320    -0.0650 h4         1 RC0       0.040100
     33 H12          3.1870     2.8340     0.2670 ha         1 RC0       0.162500
     34 H13          1.0390    -0.8750    -0.0800 ha         1 RC0       0.162500
     35 N11          0.8080     1.8820     0.0640 nu         1 RC0      -0.725300
@<TRIPOS>BOND
     1     1     4 1   
     2     1    13 1   
     3     1    14 1   
     4     2     3 ar  
     5     2    13 ar  
     6     3    16 ar  
     7     3    35 1   
     8     4     5 2   
     9     4     9 1   
    10     5     6 1   
    11     5    22 1   
    12     6    12 1   
    13     6    14 2   
    14     7    20 ar  
    15     7    21 ar  
    16     7    35 1   
    17     8    10 ar  
    18     8    11 ar  
    19     8    19 1   
    20     9    23 1   
    21     9    24 1   
    22     9    25 1   
    23    10    21 ar  
    24    10    26 1   
    25    11    20 ar  
    26    11    27 1   
    27    12    28 1   
    28    12    29 1   
    29    12    30 1   
    30    13    15 ar  
    31    15    17 ar  
    32    16    17 ar  
    33    16    18 1   
    34    17    32 1   
    35    20    33 1   
    36    21    34 1   
    37    31    35 1   
@<TRIPOS>SUBSTRUCTURE
     1 RC0         1 TEMP              0 ****  ****    0 ROOT
