@<TRIPOS>MOLECULE
RC1
   35    35     1     0     0
SMALL
No Charge or Current Charge


@<TRIPOS>ATOM
      1 C1          55.5710    11.8330    27.7560 ce         1 RC1      -0.232400
      2 C2          54.5940    11.0410    28.2720 c2         1 RC1      -0.194200
      3 C3          54.8330     9.8190    29.1500 c6         1 RC1       0.265500
      4 C4          56.2920     9.7890    29.7630 c6         1 RC1       0.194300
      5 C5          57.3440    10.1200    28.6300 c6         1 RC1       0.147300
      6 C6          57.0510    11.5450    28.0760 c6         1 RC1      -0.016200
      7 C7          55.2650    13.0270    26.8730 c          1 RC1       0.702200
      8 O1          54.5190     8.6380    28.3780 os         1 RC1      -0.576400
      9 O2          56.5430     8.5570    30.4730 oh         1 RC1      -0.804000
     10 O3          58.7630    10.1220    29.0230 os         1 RC1      -0.456000
     11 O4          54.1010    13.2780    26.6030 o          1 RC1      -0.809500
     12 O5          56.1840    13.7200    26.4650 o          1 RC1      -0.809500
     13 P1          53.1100     7.8890    28.6150 p5         1 RC1       1.316900
     14 O6          51.9800     8.8100    28.3080 o          1 RC1      -0.965833
     15 O7          52.9890     7.4010    30.0170 o          1 RC1      -0.965833
     16 O8          53.0300     6.7200    27.6950 o          1 RC1      -0.965833
     17 C8          59.6120     8.8990    29.1960 c3         1 RC1      -0.221000
     18 C9          59.0430     7.7210    28.3360 c3         1 RC1      -0.064100
     19 C10         61.1000     9.1850    28.8150 c          1 RC1       0.731000
     20 O9          61.4400    10.3390    28.5700 o          1 RC1      -0.820000
     21 O10         61.8350     8.2520    28.5130 o          1 RC1      -0.820000
     22 P2          59.9150     8.4570    30.9920 p5         1 RC1       1.369500
     23 O11         58.6560     8.7480    31.7420 o          1 RC1      -0.946833
     24 O12         61.0120     9.2620    31.6110 o          1 RC1      -0.946833
     25 O13         60.2170     7.0010    31.1460 o          1 RC1      -0.946833
     26 H2          53.5450    11.2420    28.0570 ha         1 RC1       0.161000
     27 H3          54.1320     9.8850    29.9950 h1         1 RC1       0.000700
     28 H4          56.3490    10.6020    30.5020 h1         1 RC1      -0.057300
     29 H5          57.1920     9.4210    27.7960 h1         1 RC1       0.055700
     30 H61         57.6600    11.6900    27.1730 hc         1 RC1       0.023700
     31 H62         57.3960    12.2940    28.8030 hc         1 RC1       0.023700
     32 HO2         57.4260     8.6970    30.9800 ho         1 RC1       0.592000
     33 H91         59.6760     6.8300    28.4070 hc         1 RC1       0.011367
     34 H92         58.0440     7.4170    28.6630 hc         1 RC1       0.011367
     35 H93         58.9920     8.0040    27.2770 hc         1 RC1       0.011367
@<TRIPOS>BOND
     1     1     2 2   
     2     1     6 1   
     3     1     7 1   
     4     2     3 1   
     5     2    26 1   
     6     3     4 1   
     7     3     8 1   
     8     3    27 1   
     9     4     5 1   
    10     4     9 1   
    11     4    28 1   
    12     5     6 1   
    13     5    10 1   
    14     5    29 1   
    15     6    30 1   
    16     6    31 1   
    17     7    11 1   
    18     7    12 1   
    19     8    13 1   
    20     9    32 1   
    21    10    17 1   
    22    13    14 1   
    23    13    15 1   
    24    13    16 1   
    25    17    18 1   
    26    17    19 1   
    27    17    22 1   
    28    18    33 1   
    29    18    34 1   
    30    18    35 1   
    31    19    20 1   
    32    19    21 1   
    33    22    23 1   
    34    22    24 1   
    35    22    25 1   
@<TRIPOS>SUBSTRUCTURE
     1 RC1         1 TEMP              0 ****  ****    0 ROOT
