@<TRIPOS>MOLECULE
RC1
   35    35     1     0     0
SMALL
abcg2


@<TRIPOS>ATOM
      1 C1          55.7210    11.7870    27.8110 ce         1 RC1      -0.232400
      2 C2          54.7030    11.0560    28.2720 c2         1 RC1      -0.194200
      3 C3          54.8570     9.8670    29.1800 c6         1 RC1       0.265500
      4 C4          56.2230     9.8910    29.8730 c6         1 RC1       0.194300
      5 C5          57.3180    10.1010    28.8220 c6         1 RC1       0.147300
      6 C6          57.1450    11.4860    28.2030 c6         1 RC1      -0.016200
      7 C7          55.4680    12.9710    26.8790 c          1 RC1       0.702200
      8 O1          54.7110     8.6640    28.4170 os         1 RC1      -0.576400
      9 O2          56.3850     8.7290    30.6520 oh         1 RC1      -0.804000
     10 O3          58.6080    10.0250    29.4100 os         1 RC1      -0.456000
     11 O4          54.2910    13.1740    26.4780 o          1 RC1      -0.809500
     12 O5          56.4710    13.6740    26.5790 o          1 RC1      -0.809500
     13 P1          53.2570     7.8180    28.4530 p5         1 RC1       1.316900
     14 O6          52.2090     8.7370    27.8290 o          1 RC1      -0.965833
     15 O7          52.9830     7.5100    29.9230 o          1 RC1      -0.965833
     16 O8          53.6060     6.5980    27.6090 o          1 RC1      -0.965833
     17 C8          59.4850     8.8840    29.2140 c3         1 RC1      -0.221000
     18 C9          58.7970     7.6840    28.5620 c3         1 RC1      -0.064100
     19 C10         60.7020     9.3190    28.3470 c          1 RC1       0.731000
     20 O9          60.8680    10.5400    28.0980 o          1 RC1      -0.820000
     21 O10         61.4660     8.3960    27.9460 o          1 RC1      -0.820000
     22 P2          60.0350     8.4220    30.9820 p5         1 RC1       1.369500
     23 O11         58.7140     8.4230    31.7880 o          1 RC1      -0.946833
     24 O12         61.0010     9.5160    31.4380 o          1 RC1      -0.946833
     25 O13         60.6630     7.0290    30.9320 o          1 RC1      -0.946833
     26 H2          53.6990    11.2930    27.9460 ha         1 RC1       0.161000
     27 H3          54.0830     9.8850    29.9540 h1         1 RC1       0.000700
     28 H4          56.2320    10.7820    30.5250 h1         1 RC1      -0.057300
     29 H5          57.1960     9.3490    28.0430 h1         1 RC1       0.055700
     30 H61         57.7990    11.5880    27.3350 hc         1 RC1       0.023700
     31 H62         57.4940    12.2320    28.9260 hc         1 RC1       0.023700
     32 HO2         57.3140     8.6930    31.0380 ho         1 RC1       0.592000
     33 H91         59.4820     6.8430    28.5920 hc         1 RC1       0.011367
     34 H92         57.8880     7.4150    29.0990 hc         1 RC1       0.011367
     35 H93         58.5380     7.8720    27.5160 hc         1 RC1       0.011367
@<TRIPOS>BOND
     1     1     2 2   
     2     1     6 1   
     3     1     7 1   
     4     2     3 1   
     5     2    26 1   
     6     3     4 1   
     7     3     8 1   
     8     3    27 1   
     9     4     5 1   
    10     4     9 1   
    11     4    28 1   
    12     5     6 1   
    13     5    10 1   
    14     5    29 1   
    15     6    30 1   
    16     6    31 1   
    17     7    11 1   
    18     7    12 1   
    19     8    13 1   
    20     9    32 1   
    21    10    17 1   
    22    13    14 1   
    23    13    15 1   
    24    13    16 1   
    25    17    18 1   
    26    17    19 1   
    27    17    22 1   
    28    18    33 1   
    29    18    34 1   
    30    18    35 1   
    31    19    20 1   
    32    19    21 1   
    33    22    23 1   
    34    22    24 1   
    35    22    25 1   
@<TRIPOS>SUBSTRUCTURE
     1 RC1         1 TEMP              0 ****  ****    0 ROOT
