@<TRIPOS>MOLECULE
RC2
   46    49     1     0     0
SMALL
No Charge or Current Charge


@<TRIPOS>ATOM
      1 C           -5.4920     1.9740    -0.1650 c          1 RC2       0.604100
      2 N           -6.8510     4.2000     0.2010 n8         1 RC2      -0.974200
      3 O           -4.4210     2.5650    -0.2790 o          1 RC2      -0.552100
      4 S           -0.1450     0.4740    -0.0310 ss         1 RC2      -0.005400
      5 C01          7.2150     0.8090    -0.8950 c6         1 RC2       0.130300
      6 N01         -5.6150     0.5910    -0.0750 ns         1 RC2      -0.155000
      7 C02          5.9730     2.7220     0.0030 c6         1 RC2       0.130300
      8 N02          7.3180     2.0950    -0.1480 n7         1 RC2      -0.843400
      9 C03          1.3870    -0.3530    -0.0020 cc         1 RC2       0.000000
     10 N03          4.8660     0.4250     0.0170 nh         1 RC2      -0.661400
     11 C04          2.4650    -2.5140     0.0400 c          1 RC2       0.571000
     12 N04          1.3070    -1.7270     0.0140 n          1 RC2       0.070000
     13 C05          4.9340     1.7730     0.6790 c6         1 RC2       0.182800
     14 N05          2.4920     0.3850     0.0000 nd         1 RC2      -0.390600
     15 C06         -4.2730    -2.8700    -0.0430 ca         1 RC2      -0.084000
     16 N06         -0.0150    -2.1290     0.0040 nc         1 RC2      -0.394800
     17 C07          3.6820    -1.7130     0.0420 cc         1 RC2      -0.512200
     18 C08         -0.8900    -1.1290    -0.0190 cd         1 RC2       0.453900
     19 C09          6.2050    -0.1940    -0.2510 c6         1 RC2       0.182800
     20 C10         -2.3590    -1.3470    -0.0350 ca         1 RC2      -0.113500
     21 C11         -2.8870    -2.6580    -0.0330 ca         1 RC2      -0.091000
     22 C12         -6.8660     2.7280    -0.1230 c3         1 RC2       0.073800
     23 C13         -5.1530    -1.7780    -0.0570 ca         1 RC2      -0.154000
     24 C14         -4.6590    -0.4620    -0.0630 ca         1 RC2      -0.015000
     25 C15         -3.2600    -0.2540    -0.0480 ca         1 RC2      -0.122000
     26 C16          3.6910    -0.3350     0.0240 cd         1 RC2       0.475600
     27 HN          -6.2870     4.6990    -0.5000 hn         1 RC2       0.406500
     28 HNA         -7.7950     4.5920     0.0780 hn         1 RC2       0.406500
     29 H01          6.8900     1.0160    -1.9260 h1         1 RC2       0.064700
     30 H01A         8.2060     0.3340    -0.9590 h1         1 RC2       0.064700
     31 HN01        -6.5720     0.2690    -0.0020 hn         1 RC2       0.148000
     32 H02          6.0560     3.6470     0.5930 h1         1 RC2       0.064700
     33 H02A         5.5920     3.0060    -0.9900 h1         1 RC2       0.064700
     34 HN02         7.6870     1.8940     0.7910 hn         1 RC2       0.405000
     35 H05          5.2100     1.6430     1.7360 h1         1 RC2       0.062700
     36 H05A         3.9610     2.2830     0.6710 h1         1 RC2       0.062700
     37 H06         -4.6670    -3.8840    -0.0400 ha         1 RC2       0.121000
     38 H07          4.5920    -2.2940     0.0780 ha         1 RC2       0.213000
     39 H09          6.1080    -1.0490    -0.9360 h1         1 RC2       0.062700
     40 H09A         6.6290    -0.5780     0.6880 h1         1 RC2       0.062700
     41 H11         -2.2260    -3.5230    -0.0220 ha         1 RC2       0.144000
     42 H12         -7.3380     2.5880    -1.1050 h1         1 RC2       0.044700
     43 H12A        -7.4990     2.2220     0.6190 h1         1 RC2       0.044700
     44 H13         -6.2260    -1.9580    -0.0650 ha         1 RC2       0.111000
     45 H15         -2.8660     0.7560    -0.0410 ha         1 RC2       0.152000
     46 O01          2.4680    -3.7380     0.0600 o          1 RC2      -0.513000
@<TRIPOS>BOND
     1     1     3 2   
     2     1     6 1   
     3     1    22 1   
     4     2    22 1   
     5     2    27 1   
     6     2    28 1   
     7     4     9 1   
     8     4    18 1   
     9     5     8 1   
    10     5    19 1   
    11     5    29 1   
    12     5    30 1   
    13     6    24 1   
    14     6    31 1   
    15     7     8 1   
    16     7    13 1   
    17     7    32 1   
    18     7    33 1   
    19     8    34 1   
    20     9    12 1   
    21     9    14 2   
    22    10    13 1   
    23    10    19 1   
    24    10    26 1   
    25    11    12 1   
    26    11    17 1   
    27    11    46 2   
    28    12    16 1   
    29    13    35 1   
    30    13    36 1   
    31    14    26 1   
    32    15    21 ar  
    33    15    23 ar  
    34    15    37 1   
    35    16    18 2   
    36    17    26 2   
    37    17    38 1   
    38    18    20 1   
    39    19    39 1   
    40    19    40 1   
    41    20    21 ar  
    42    20    25 ar  
    43    21    41 1   
    44    22    42 1   
    45    22    43 1   
    46    23    24 ar  
    47    23    44 1   
    48    24    25 ar  
    49    25    45 1   
@<TRIPOS>SUBSTRUCTURE
     1 RC2         1 TEMP              0 ****  ****    0 ROOT
