@<TRIPOS>MOLECULE
RC2
   46    49     1     0     0
SMALL
abcg2


@<TRIPOS>ATOM
      1 C           -5.3170     1.9140     0.0540 c          1 RC2       0.604100
      2 N           -6.4060     4.1000     0.2090 n8         1 RC2      -0.974200
      3 O           -4.2330     2.4460     0.1880 o          1 RC2      -0.552100
      4 S           -0.1840     0.4940     0.3130 ss         1 RC2      -0.005400
      5 C01          6.9170     0.6110    -0.8040 c6         1 RC2       0.130300
      6 N01         -5.4950     0.5720    -0.0890 ns         1 RC2      -0.155000
      7 C02          5.6220     2.5780    -0.3750 c6         1 RC2       0.130300
      8 N02          6.9570     2.0420    -0.5720 n7         1 RC2      -0.843400
      9 C03          1.3970    -0.2120     0.2190 cc         1 RC2       0.000000
     10 N03          4.7900     0.4060     0.3780 nh         1 RC2      -0.661400
     11 C04          2.4030    -2.3830    -0.1430 c          1 RC2       0.571000
     12 N04          1.2620    -1.5390    -0.0220 n          1 RC2       0.070000
     13 C05          4.8130     1.8300     0.6800 c6         1 RC2       0.182800
     14 N05          2.5010     0.4260     0.3540 nd         1 RC2      -0.390600
     15 C06         -4.1460    -2.8230    -0.3160 ca         1 RC2      -0.084000
     16 N06          0.0150    -2.0220    -0.1440 nc         1 RC2      -0.394800
     17 C07          3.6140    -1.6740     0.0070 cc         1 RC2      -0.512200
     18 C08         -0.8570    -1.0950     0.0020 cd         1 RC2       0.453900
     19 C09          6.1200    -0.1630     0.2450 c6         1 RC2       0.182800
     20 C10         -2.2970    -1.3220    -0.0830 ca         1 RC2      -0.113500
     21 C11         -2.7790    -2.6210    -0.2250 ca         1 RC2      -0.091000
     22 C12         -6.6230     2.6890     0.0050 c3         1 RC2       0.073800
     23 C13         -5.0230    -1.7540    -0.2670 ca         1 RC2      -0.154000
     24 C14         -4.5470    -0.4480    -0.1230 ca         1 RC2      -0.015000
     25 C15         -3.1720    -0.2380    -0.0310 ca         1 RC2      -0.122000
     26 C16          3.6540    -0.2980     0.2420 cd         1 RC2       0.475600
     27 HN          -5.9750     4.5070    -0.6100 hn         1 RC2       0.406500
     28 HNA         -7.3020     4.5560     0.3120 hn         1 RC2       0.406500
     29 H01          6.4740     0.4270    -1.7880 h1         1 RC2       0.064700
     30 H01A         7.9360     0.2220    -0.8340 h1         1 RC2       0.064700
     31 HN01        -6.4500     0.2620    -0.1910 hn         1 RC2       0.148000
     32 H02          5.6950     3.6290    -0.0910 h1         1 RC2       0.064700
     33 H02A         5.0840     2.5390    -1.3280 h1         1 RC2       0.064700
     34 HN02         7.5160     2.2310     0.2520 hn         1 RC2       0.405000
     35 H05          5.2720     1.9700     1.6660 h1         1 RC2       0.062700
     36 H05A         3.8000     2.2130     0.7320 h1         1 RC2       0.062700
     37 H06         -4.5360    -3.8250    -0.4260 ha         1 RC2       0.121000
     38 H07          4.5110    -2.2680    -0.0700 ha         1 RC2       0.213000
     39 H09          6.0750    -1.2110    -0.0330 h1         1 RC2       0.062700
     40 H09A         6.6280    -0.1060     1.2140 h1         1 RC2       0.062700
     41 H11         -2.0980    -3.4600    -0.2610 ha         1 RC2       0.144000
     42 H12         -7.1230     2.4280    -0.9390 h1         1 RC2       0.044700
     43 H12A        -7.2710     2.3070     0.7980 h1         1 RC2       0.044700
     44 H13         -6.0900    -1.9300    -0.3410 ha         1 RC2       0.111000
     45 H15         -2.7970     0.7680     0.0730 ha         1 RC2       0.152000
     46 O01          2.2390    -3.5740    -0.3520 o          1 RC2      -0.513000
@<TRIPOS>BOND
     1     1     3 2   
     2     1     6 1   
     3     1    22 1   
     4     2    22 1   
     5     2    27 1   
     6     2    28 1   
     7     4     9 1   
     8     4    18 1   
     9     5     8 1   
    10     5    19 1   
    11     5    29 1   
    12     5    30 1   
    13     6    24 1   
    14     6    31 1   
    15     7     8 1   
    16     7    13 1   
    17     7    32 1   
    18     7    33 1   
    19     8    34 1   
    20     9    12 1   
    21     9    14 2   
    22    10    13 1   
    23    10    19 1   
    24    10    26 1   
    25    11    12 1   
    26    11    17 1   
    27    11    46 2   
    28    12    16 1   
    29    13    35 1   
    30    13    36 1   
    31    14    26 1   
    32    15    21 ar  
    33    15    23 ar  
    34    15    37 1   
    35    16    18 2   
    36    17    26 2   
    37    17    38 1   
    38    18    20 1   
    39    19    39 1   
    40    19    40 1   
    41    20    21 ar  
    42    20    25 ar  
    43    21    41 1   
    44    22    42 1   
    45    22    43 1   
    46    23    24 ar  
    47    23    44 1   
    48    24    25 ar  
    49    25    45 1   
@<TRIPOS>SUBSTRUCTURE
     1 RC2         1 TEMP              0 ****  ****    0 ROOT
