@<TRIPOS>MOLECULE
RC3
   38    41     1     0     0
SMALL
No Charge or Current Charge


@<TRIPOS>ATOM
      1 C02        -45.0040   -26.0660    -0.6970 c          1 RC3       0.716000
      2 C03        -44.9090   -26.5850     0.7400 c3         1 RC3      -0.227400
      3 C04        -44.0890   -27.9120     0.8020 c6         1 RC3       0.176300
      4 C05        -43.8940   -28.4520     2.2580 c6         1 RC3       0.172800
      5 C07        -45.2500   -29.2750     4.2190 ca         1 RC3       0.426900
      6 C08        -46.4500   -29.1750     4.9590 cp         1 RC3      -0.224000
      7 C09        -47.8020   -28.7390     4.6120 cp         1 RC3      -0.038000
      8 C10        -48.5900   -28.8670     5.7490 ca         1 RC3      -0.025200
      9 C11        -49.9430   -28.5230     5.7900 ca         1 RC3      -0.144000
     10 C12        -50.5180   -28.0170     4.6040 ca         1 RC3      -0.096000
     11 C13        -49.7310   -27.8560     3.4360 ca         1 RC3      -0.137000
     12 C14        -48.3620   -28.2080     3.4320 ca         1 RC3      -0.055000
     13 C16        -46.4220   -29.5250     6.3120 ca         1 RC3       0.186500
     14 C18        -44.2010   -29.9750     6.1600 ca         1 RC3       0.173900
     15 C20        -45.8110   -30.0080     1.9060 c6         1 RC3       0.170800
     16 C21        -45.9640   -29.4430     0.4620 c6         1 RC3       0.147600
     17 N06        -45.1510   -29.0370     2.8330 nh         1 RC3      -0.744300
     18 N15        -47.7400   -29.3460     6.7540 na         1 RC3      -0.340300
     19 N17        -45.3070   -29.9290     6.9370 nb         1 RC3      -0.257000
     20 N19        -44.1170   -29.6750     4.8420 nb         1 RC3      -0.282000
     21 O01        -46.0080   -26.3200    -1.3450 o          1 RC3      -0.738500
     22 O22        -44.6980   -28.9340    -0.0320 os         1 RC3      -0.443000
     23 O23        -44.0630   -25.4200    -1.1330 o          1 RC3      -0.738500
     24 H032       -44.3260   -25.8710     1.3350 hc         1 RC3       0.031200
     25 H031       -45.9050   -26.7590     1.1590 hc         1 RC3       0.031200
     26 H041       -43.0910   -27.6960     0.3920 h1         1 RC3       0.087700
     27 H051       -43.1040   -29.2170     2.2400 h1         1 RC3       0.050200
     28 H052       -43.5330   -27.6300     2.8930 h1         1 RC3       0.050200
     29 H111       -50.5290   -28.6340     6.6990 ha         1 RC3       0.107000
     30 H121       -51.5680   -27.7350     4.5900 ha         1 RC3       0.104000
     31 H131       -50.1830   -27.4490     2.5340 ha         1 RC3       0.117000
     32 H141       -47.7560   -28.0580     2.5440 ha         1 RC3       0.142000
     33 H181       -43.2800   -30.2960     6.6450 h5         1 RC3       0.038100
     34 H201       -46.8050   -30.2860     2.2830 h1         1 RC3       0.042200
     35 H202       -45.2160   -30.9330     1.8600 h1         1 RC3       0.042200
     36 H212       -46.7210   -28.6490     0.4420 h1         1 RC3       0.058700
     37 H211       -46.3110   -30.2420    -0.2080 h1         1 RC3       0.058700
     38 H151       -48.0360   -29.5370     7.7030 hn         1 RC3       0.356000
@<TRIPOS>BOND
     1     1     2 1   
     2     1    21 1   
     3     1    23 1   
     4     2     3 1   
     5     2    24 1   
     6     2    25 1   
     7     3     4 1   
     8     3    22 1   
     9     3    26 1   
    10     4    17 1   
    11     4    27 1   
    12     4    28 1   
    13     5     6 ar  
    14     5    17 1   
    15     5    20 ar  
    16     6     7 1   
    17     6    13 ar  
    18     7     8 ar  
    19     7    12 ar  
    20     8     9 ar  
    21     8    18 1   
    22     9    10 ar  
    23     9    29 1   
    24    10    11 ar  
    25    10    30 1   
    26    11    12 ar  
    27    11    31 1   
    28    12    32 1   
    29    13    18 1   
    30    13    19 ar  
    31    14    19 ar  
    32    14    20 ar  
    33    14    33 1   
    34    15    16 1   
    35    15    17 1   
    36    15    34 1   
    37    15    35 1   
    38    16    22 1   
    39    16    36 1   
    40    16    37 1   
    41    18    38 1   
@<TRIPOS>SUBSTRUCTURE
     1 RC3         1 TEMP              0 ****  ****    0 ROOT
