@<TRIPOS>MOLECULE
RC3
   38    41     1     0     0
SMALL
abcg2


@<TRIPOS>ATOM
      1 C02        -44.7950   -26.0220    -0.4800 c          1 RC3       0.716000
      2 C03        -44.5170   -26.6650     0.8920 c3         1 RC3      -0.227400
      3 C04        -44.0080   -28.1010     0.7820 c6         1 RC3       0.176300
      4 C05        -43.8220   -28.7640     2.1470 c6         1 RC3       0.172800
      5 C07        -45.2430   -29.1150     4.1110 ca         1 RC3       0.426900
      6 C08        -46.4840   -29.0990     4.7790 cp         1 RC3      -0.224000
      7 C09        -47.8720   -28.8190     4.4700 cp         1 RC3      -0.038000
      8 C10        -48.5870   -28.9830     5.6890 ca         1 RC3      -0.025200
      9 C11        -49.9580   -28.7790     5.7810 ca         1 RC3      -0.144000
     10 C12        -50.6280   -28.3730     4.6330 ca         1 RC3      -0.096000
     11 C13        -49.9410   -28.1660     3.4310 ca         1 RC3      -0.137000
     12 C14        -48.5720   -28.3830     3.3410 ca         1 RC3      -0.055000
     13 C16        -46.4270   -29.3510     6.1700 ca         1 RC3       0.186500
     14 C18        -44.2040   -29.4110     6.1520 ca         1 RC3       0.173900
     15 C20        -45.9680   -29.8450     1.8880 c6         1 RC3       0.170800
     16 C21        -46.1200   -29.1930     0.5270 c6         1 RC3       0.147600
     17 N06        -45.1300   -29.0070     2.7500 nh         1 RC3      -0.744300
     18 N15        -47.6890   -29.3230     6.6870 na         1 RC3      -0.340300
     19 N17        -45.3110   -29.5280     6.8830 nb         1 RC3      -0.257000
     20 N19        -44.1110   -29.2230     4.8360 nb         1 RC3      -0.282000
     21 O01        -45.9400   -25.5310    -0.6640 o          1 RC3      -0.738500
     22 O22        -44.8490   -28.9180    -0.0540 os         1 RC3      -0.443000
     23 O23        -43.8520   -26.0250    -1.3120 o          1 RC3      -0.738500
     24 H032       -43.7370   -26.0820     1.3910 hc         1 RC3       0.031200
     25 H031       -45.4100   -26.6140     1.5130 hc         1 RC3       0.031200
     26 H041       -43.0470   -28.0930     0.2690 h1         1 RC3       0.087700
     27 H051       -43.2750   -29.7070     2.0250 h1         1 RC3       0.050200
     28 H052       -43.2400   -28.1170     2.7970 h1         1 RC3       0.050200
     29 H111       -50.4790   -28.9170     6.7190 ha         1 RC3       0.107000
     30 H121       -51.6960   -28.2020     4.6750 ha         1 RC3       0.104000
     31 H131       -50.4830   -27.8260     2.5590 ha         1 RC3       0.117000
     32 H141       -48.0620   -28.1920     2.4090 ha         1 RC3       0.142000
     33 H181       -43.2640   -29.4950     6.6880 h5         1 RC3       0.038100
     34 H201       -46.9390   -30.0140     2.3410 h1         1 RC3       0.042200
     35 H202       -45.4800   -30.8220     1.7700 h1         1 RC3       0.042200
     36 H212       -46.7070   -28.2730     0.6090 h1         1 RC3       0.058700
     37 H211       -46.6320   -29.8700    -0.1560 h1         1 RC3       0.058700
     38 H151       -47.9100   -29.4280     7.6650 hn         1 RC3       0.356000
@<TRIPOS>BOND
     1     1     2 1   
     2     1    21 1   
     3     1    23 1   
     4     2     3 1   
     5     2    24 1   
     6     2    25 1   
     7     3     4 1   
     8     3    22 1   
     9     3    26 1   
    10     4    17 1   
    11     4    27 1   
    12     4    28 1   
    13     5     6 ar  
    14     5    17 1   
    15     5    20 ar  
    16     6     7 1   
    17     6    13 ar  
    18     7     8 ar  
    19     7    12 ar  
    20     8     9 ar  
    21     8    18 1   
    22     9    10 ar  
    23     9    29 1   
    24    10    11 ar  
    25    10    30 1   
    26    11    12 ar  
    27    11    31 1   
    28    12    32 1   
    29    13    18 1   
    30    13    19 ar  
    31    14    19 ar  
    32    14    20 ar  
    33    14    33 1   
    34    15    16 1   
    35    15    17 1   
    36    15    34 1   
    37    15    35 1   
    38    16    22 1   
    39    16    36 1   
    40    16    37 1   
    41    18    38 1   
@<TRIPOS>SUBSTRUCTURE
     1 RC3         1 TEMP              0 ****  ****    0 ROOT
