@<TRIPOS>MOLECULE
RC5
   41    41     1     0     0
SMALL
bcc


@<TRIPOS>ATOM
      1 O12         -1.9420     2.0480    -1.4700 o          1 RC5      -0.615100
      2 C4          -2.5910     1.7750    -0.4690 c          1 RC5       0.687100
      3 N9          -3.5940     2.5990    -0.0640 n          1 RC5      -0.375300
      4 O10         -4.4780     2.1300     0.8770 oh         1 RC5      -0.385100
      5 C11         -4.1030     3.6970    -0.8480 c3         1 RC5       0.090300
      6 C3          -2.3420     0.5490     0.3710 c3         1 RC5      -0.158400
      7 C2          -0.9820    -0.1070     0.1420 c3         1 RC5      -0.005700
      8 C1          -0.9810    -1.5100     0.7560 c3         1 RC5      -0.231600
      9 P5          -1.9890    -2.8040    -0.1300 p5         1 RC5       1.137700
     10 O7          -1.6940    -4.1010     0.6390 o          1 RC5      -0.931833
     11 O6          -3.4640    -2.3700    -0.0270 o          1 RC5      -0.931833
     12 O8          -1.4600    -2.8060    -1.5710 o          1 RC5      -0.931833
     13 C13          0.1370     0.7710     0.7140 c3         1 RC5      -0.068400
     14 C14          1.5360     0.3870     0.2490 c3         1 RC5      -0.068400
     15 C15          2.6260     1.2080     0.9420 c3         1 RC5      -0.042100
     16 C16          4.0050     0.8400     0.4720 ca         1 RC5      -0.047300
     17 C17          4.6120     1.5300    -0.5760 ca         1 RC5      -0.125000
     18 C19          5.8700     1.1650    -1.0390 ca         1 RC5      -0.135500
     19 C21          6.5440     0.0990    -0.4590 ca         1 RC5      -0.153000
     20 C20          5.9500    -0.5990     0.5860 ca         1 RC5      -0.135500
     21 C18          4.6920    -0.2300     1.0440 ca         1 RC5      -0.125000
     22 H1          -4.2560     2.5790     1.7030 ho         1 RC5       0.381000
     23 H2          -4.9450     3.3940    -1.4750 h1         1 RC5       0.027367
     24 H3          -4.4300     4.4960    -0.1830 h1         1 RC5       0.027367
     25 H4          -3.3150     4.0860    -1.4850 h1         1 RC5       0.027367
     26 H5          -2.4560     0.7810     1.4340 hc         1 RC5       0.102200
     27 H6          -3.1210    -0.1900     0.1490 hc         1 RC5       0.102200
     28 H7          -0.8200    -0.2170    -0.9350 hc         1 RC5       0.084700
     29 H8           0.0480    -1.8830     0.7970 hc         1 RC5       0.006700
     30 H9          -1.3040    -1.4370     1.8040 hc         1 RC5       0.006700
     31 H12         -0.0320     1.8190     0.4480 hc         1 RC5       0.002200
     32 H13          0.0910     0.7250     1.8090 hc         1 RC5       0.002200
     33 H14          1.7190    -0.6740     0.4340 hc         1 RC5       0.057700
     34 H15          1.6120     0.5270    -0.8350 hc         1 RC5       0.057700
     35 H16          2.4480     2.2720     0.7620 hc         1 RC5       0.032700
     36 H17          2.5500     1.0580     2.0230 hc         1 RC5       0.032700
     37 H18          4.0930     2.3650    -1.0320 ha         1 RC5       0.132500
     38 H19          6.3260     1.7190    -1.8500 ha         1 RC5       0.114000
     39 H20          7.5260    -0.1840    -0.8150 ha         1 RC5       0.109000
     40 H21          6.4690    -1.4290     1.0470 ha         1 RC5       0.114000
     41 H22          4.2390    -0.7790     1.8620 ha         1 RC5       0.132500
@<TRIPOS>BOND
     1     1     2 2   
     2     2     3 1   
     3     2     6 1   
     4     3     4 1   
     5     3     5 1   
     6     4    22 1   
     7     5    23 1   
     8     5    24 1   
     9     5    25 1   
    10     6     7 1   
    11     6    26 1   
    12     6    27 1   
    13     7     8 1   
    14     7    13 1   
    15     7    28 1   
    16     8     9 1   
    17     8    29 1   
    18     8    30 1   
    19     9    10 1   
    20     9    11 1   
    21     9    12 1   
    22    13    14 1   
    23    13    31 1   
    24    13    32 1   
    25    14    15 1   
    26    14    33 1   
    27    14    34 1   
    28    15    16 1   
    29    15    35 1   
    30    15    36 1   
    31    16    17 ar  
    32    16    21 ar  
    33    17    18 ar  
    34    17    37 1   
    35    18    19 ar  
    36    18    38 1   
    37    19    20 ar  
    38    19    39 1   
    39    20    21 ar  
    40    20    40 1   
    41    21    41 1   
@<TRIPOS>SUBSTRUCTURE
     1 RC5         1 TEMP              0 ****  ****    0 ROOT
