@<TRIPOS>MOLECULE
RC5
   41    41     1     0     0
SMALL
No Charge or Current Charge


@<TRIPOS>ATOM
      1 O12         -1.9950     2.1400    -1.4310 o          1 RC5      -0.615100
      2 C4          -2.6650     1.8150    -0.4560 c          1 RC5       0.620100
      3 N9          -3.7550     2.6280    -0.0330 n          1 RC5      -0.308300
      4 O10         -4.6050     2.2370     1.0660 oh         1 RC5      -0.424100
      5 C11         -4.1360     3.8740    -0.7270 c3         1 RC5       0.090300
      6 C3          -2.3870     0.5150     0.3260 c3         1 RC5      -0.158400
      7 C2          -1.0050    -0.1610     0.0890 c3         1 RC5      -0.005700
      8 C1          -0.9820    -1.6220     0.6350 c3         1 RC5      -0.389400
      9 P5          -2.0480    -2.8710    -0.2220 p5         1 RC5       1.295500
     10 O7          -1.4610    -4.2210     0.0150 o          1 RC5      -0.931833
     11 O6          -3.4230    -2.8080     0.3490 o          1 RC5      -0.931833
     12 O8          -2.0730    -2.5740    -1.6830 o          1 RC5      -0.931833
     13 C13          0.1340     0.7140     0.6990 c3         1 RC5      -0.068400
     14 C14          1.5730     0.3060     0.2970 c3         1 RC5      -0.068400
     15 C15          2.6460     1.2850     0.8200 c3         1 RC5      -0.042100
     16 C16          4.0530     0.8650     0.4160 ca         1 RC5      -0.047300
     17 C17          4.6080     1.3120    -0.7990 ca         1 RC5      -0.107000
     18 C19          5.9050     0.9200    -1.1730 ca         1 RC5      -0.117500
     19 C21          6.6550     0.0790    -0.3350 ca         1 RC5      -0.135000
     20 C20          6.1070    -0.3710     0.8780 ca         1 RC5      -0.117500
     21 C18          4.8100     0.0200     1.2520 ca         1 RC5      -0.107000
     22 H1          -4.2240     2.6770     1.8600 ho         1 RC5       0.420000
     23 H2          -4.4080     3.6480    -1.7660 h1         1 RC5       0.027367
     24 H3          -4.9940     4.3410    -0.2270 h1         1 RC5       0.027367
     25 H4          -3.2920     4.5740    -0.7190 h1         1 RC5       0.027367
     26 H5          -2.5690     0.6880     1.3910 hc         1 RC5       0.102200
     27 H6          -3.2150    -0.1510     0.0700 hc         1 RC5       0.102200
     28 H7          -0.8370    -0.2130    -0.9950 hc         1 RC5       0.084700
     29 H8           0.0310    -2.0280     0.5570 hc         1 RC5       0.006700
     30 H9          -1.2380    -1.6240     1.7010 hc         1 RC5       0.006700
     31 H12         -0.0120     1.7570     0.3930 hc         1 RC5       0.002200
     32 H13          0.0510     0.7030     1.7930 hc         1 RC5       0.002200
     33 H14          1.8020    -0.6930     0.6830 hc         1 RC5       0.057700
     34 H15          1.6420     0.2510    -0.7970 hc         1 RC5       0.057700
     35 H16          2.4320     2.2920     0.4380 hc         1 RC5       0.032700
     36 H17          2.5720     1.3500     1.9120 hc         1 RC5       0.032700
     37 H18          4.0320     1.9610    -1.4550 ha         1 RC5       0.114500
     38 H19          6.3280     1.2690    -2.1130 ha         1 RC5       0.096000
     39 H20          7.6590    -0.2240    -0.6240 ha         1 RC5       0.091000
     40 H21          6.6860    -1.0240     1.5270 ha         1 RC5       0.096000
     41 H22          4.3910    -0.3350     2.1910 ha         1 RC5       0.114500
@<TRIPOS>BOND
     1     1     2 2   
     2     2     3 1   
     3     2     6 1   
     4     3     4 1   
     5     3     5 1   
     6     4    22 1   
     7     5    23 1   
     8     5    24 1   
     9     5    25 1   
    10     6     7 1   
    11     6    26 1   
    12     6    27 1   
    13     7     8 1   
    14     7    13 1   
    15     7    28 1   
    16     8     9 1   
    17     8    29 1   
    18     8    30 1   
    19     9    10 1   
    20     9    11 1   
    21     9    12 1   
    22    13    14 1   
    23    13    31 1   
    24    13    32 1   
    25    14    15 1   
    26    14    33 1   
    27    14    34 1   
    28    15    16 1   
    29    15    35 1   
    30    15    36 1   
    31    16    17 ar  
    32    16    21 ar  
    33    17    18 ar  
    34    17    37 1   
    35    18    19 ar  
    36    18    38 1   
    37    19    20 ar  
    38    19    39 1   
    39    20    21 ar  
    40    20    40 1   
    41    21    41 1   
@<TRIPOS>SUBSTRUCTURE
     1 RC5         1 TEMP              0 ****  ****    0 ROOT
