@<TRIPOS>MOLECULE
RC6
   23    24     1     0     0
SMALL
abcg2


@<TRIPOS>ATOM
      1 C01         23.9660    67.1960    71.5380 c3         1 RC6      -0.173100
      2 C02         25.2140    67.7350    72.1920 c          1 RC6       0.610100
      3 C05         26.3060    65.5760    71.5230 c5         1 RC6       0.102000
      4 C06         27.7730    65.1060    71.5700 c5         1 RC6      -0.032100
      5 C07         28.4470    66.1410    72.4220 ca         1 RC6      -0.135300
      6 C08         29.7430    66.1950    72.8920 ca         1 RC6       0.160000
      7 C09         30.1840    67.2680    73.6630 ca         1 RC6      -0.128000
      8 C10         29.2930    68.2940    73.9510 ca         1 RC6      -0.080000
      9 C11         27.9760    68.2750    73.4890 ca         1 RC6      -0.117000
     10 C12         27.5680    67.1870    72.7240 ca         1 RC6      -0.017000
     11 N04         26.3080    66.9200    72.1530 n          1 RC6      -0.229400
     12 O03         25.2380    68.8430    72.7260 o          1 RC6      -0.587100
     13 H1          23.1630    67.9130    71.6830 hc         1 RC6       0.064700
     14 H2          24.1230    67.0400    70.4690 hc         1 RC6       0.064700
     15 H3          23.6790    66.2350    71.9700 hc         1 RC6       0.064700
     16 H4          25.9310    65.6410    70.5050 h1         1 RC6       0.051200
     17 H5          25.6560    64.9100    72.0910 h1         1 RC6       0.051200
     18 H6          27.8620    64.1060    71.9940 hc         1 RC6       0.068700
     19 H7          28.2170    65.0760    70.5730 hc         1 RC6       0.068700
     20 H8          31.2010    67.2950    74.0260 ha         1 RC6       0.131000
     21 H9          29.6290    69.1310    74.5500 ha         1 RC6       0.121000
     22 H10         27.2950    69.0770    73.7160 ha         1 RC6       0.154000
     23 CL13        30.8500    64.8930    72.5070 cl         1 RC6      -0.214000
@<TRIPOS>BOND
     1     1     2 1   
     2     1    13 1   
     3     1    14 1   
     4     1    15 1   
     5     2    11 1   
     6     2    12 2   
     7     3     4 1   
     8     3    11 1   
     9     3    16 1   
    10     3    17 1   
    11     4     5 1   
    12     4    18 1   
    13     4    19 1   
    14     5     6 ar  
    15     5    10 ar  
    16     6     7 ar  
    17     6    23 1   
    18     7     8 ar  
    19     7    20 1   
    20     8     9 ar  
    21     8    21 1   
    22     9    10 ar  
    23     9    22 1   
    24    10    11 1   
@<TRIPOS>SUBSTRUCTURE
     1 RC6         1 TEMP              0 ****  ****    0 ROOT
