@<TRIPOS>MOLECULE
RC6
   23    24     1     0     0
SMALL
No Charge or Current Charge


@<TRIPOS>ATOM
      1 C01         23.8740    67.2150    71.5460 c3         1 RC6      -0.173100
      2 C02         25.1480    67.7130    72.2390 c          1 RC6       0.610100
      3 C05         26.3080    65.6100    71.4410 c5         1 RC6       0.102000
      4 C06         27.7840    65.0670    71.6180 c5         1 RC6      -0.032100
      5 C07         28.4490    66.1550    72.4420 ca         1 RC6      -0.135300
      6 C08         29.7810    66.1790    72.8890 ca         1 RC6       0.160000
      7 C09         30.2300    67.2760    73.6480 ca         1 RC6      -0.128000
      8 C10         29.3500    68.3350    73.9530 ca         1 RC6      -0.080000
      9 C11         28.0170    68.3000    73.5000 ca         1 RC6      -0.117000
     10 C12         27.5890    67.1930    72.7420 ca         1 RC6      -0.017000
     11 N04         26.3200    66.9100    72.1710 n          1 RC6      -0.229400
     12 O03         25.1230    68.7860    72.8300 o          1 RC6      -0.587100
     13 H1          23.0360    67.9110    71.6620 hc         1 RC6       0.064700
     14 H2          24.0850    67.0240    70.4880 hc         1 RC6       0.064700
     15 H3          23.6170    66.2200    71.9270 hc         1 RC6       0.064700
     16 H4          26.0660    65.7500    70.3800 h1         1 RC6       0.051200
     17 H5          25.5790    64.9140    71.8770 h1         1 RC6       0.051200
     18 H6          27.7940    64.0990    72.1320 hc         1 RC6       0.068700
     19 H7          28.2760    64.9270    70.6490 hc         1 RC6       0.068700
     20 H8          31.2590    67.3050    73.9990 ha         1 RC6       0.131000
     21 H9          29.7020    69.1810    74.5400 ha         1 RC6       0.121000
     22 H10         27.3510    69.1230    73.7430 ha         1 RC6       0.154000
     23 Cl13        30.8840    64.8600    72.5110 cl         1 RC6      -0.214000
@<TRIPOS>BOND
     1     1     2 1   
     2     1    13 1   
     3     1    14 1   
     4     1    15 1   
     5     2    11 1   
     6     2    12 2   
     7     3     4 1   
     8     3    11 1   
     9     3    16 1   
    10     3    17 1   
    11     4     5 1   
    12     4    18 1   
    13     4    19 1   
    14     5     6 ar  
    15     5    10 ar  
    16     6     7 ar  
    17     6    23 1   
    18     7     8 ar  
    19     7    20 1   
    20     8     9 ar  
    21     8    21 1   
    22     9    10 ar  
    23     9    22 1   
    24    10    11 1   
@<TRIPOS>SUBSTRUCTURE
     1 RC6         1 TEMP              0 ****  ****    0 ROOT
