@<TRIPOS>MOLECULE
RC7
   42    44     1     0     0
SMALL
No Charge or Current Charge


@<TRIPOS>ATOM
      1 C1           1.2450     0.7310     1.3300 c5         1 RC7       0.261900
      2 N2          -0.1950     0.8120     1.7690 n2         1 RC7      -0.566900
      3 CA2         -0.7940     1.6480     0.9660 ce         1 RC7       0.347300
      4 C2           0.1400     2.3210     0.0260 c          1 RC7       0.436700
      5 O2          -0.0930     3.2000    -0.7980 o          1 RC7      -0.552000
      6 N3           1.3680     1.7500     0.2770 n          1 RC7      -0.374800
      7 CA3          2.6120     2.1540    -0.4330 c3         1 RC7      -0.039000
      8 C            2.6500     1.8360    -1.9530 c          1 RC7       0.713000
      9 O            2.4190     0.6900    -2.3150 o          1 RC7      -0.720000
     10 CA1          1.5860    -0.6980     0.8470 c3         1 RC7      -0.072400
     11 CB2         -2.2560     2.0440     1.0430 c3         1 RC7      -0.050400
     12 CG2         -3.1470     1.2080     0.1320 ca         1 RC7      -0.091300
     13 CD1         -3.4530     1.6540    -1.1700 ca         1 RC7      -0.057500
     14 CD2         -3.6570    -0.0250     0.5800 ca         1 RC7      -0.057500
     15 CE1         -4.2670     0.8750    -2.0110 ca         1 RC7      -0.178500
     16 CE2         -4.4720    -0.8020    -0.2630 ca         1 RC7      -0.178500
     17 CZ          -4.7760    -0.3520    -1.5560 ca         1 RC7       0.123100
     18 OH          -5.5660    -1.1100    -2.3660 oh         1 RC7      -0.546100
     19 CB1          1.5340    -1.7800     1.9520 c3         1 RC7      -0.093700
     20 CG1          1.9530    -3.1400     1.4630 cc         1 RC7       0.266300
     21 ND1          1.1000    -3.9300     0.7470 nc         1 RC7      -0.659000
     22 CD3          3.1600    -3.7550     1.6470 cd         1 RC7      -0.245000
     23 NE1          3.0370    -4.9800     1.0080 na         1 RC7      -0.309500
     24 CE3          1.7640    -5.0440     0.4730 cd         1 RC7       0.381400
     25 OXT          2.9340     2.7400    -2.7260 o          1 RC7      -0.720000
     26 HOH         -5.6690    -0.6430    -3.2230 ho         1 RC7       0.457000
     27 HE2         -4.8640    -1.7530     0.0880 ha         1 RC7       0.111500
     28 HD2         -3.4210    -0.3830     1.5810 ha         1 RC7       0.117500
     29 HD1         -3.0580     2.6020    -1.5310 ha         1 RC7       0.117500
     30 HE1         -4.4970     1.2300    -3.0130 ha         1 RC7       0.111500
     31 HB21        -2.6030     1.9710     2.0800 hc         1 RC7       0.069200
     32 HB22        -2.3600     3.1040     0.7820 hc         1 RC7       0.069200
     33 H1           1.9190     1.0350     2.1420 h2         1 RC7       0.062700
     34 HA31         2.7540     3.2340    -0.3000 h1         1 RC7       0.036200
     35 HA32         3.4670     1.6480     0.0330 h1         1 RC7       0.036200
     36 HA11         0.9080    -0.9840     0.0330 hc         1 RC7       0.082200
     37 HA12         2.5940    -0.6980     0.4170 hc         1 RC7       0.082200
     38 HB11         2.1860    -1.4760     2.7800 hc         1 RC7       0.045700
     39 HB12         0.5190    -1.8370     2.3620 hc         1 RC7       0.045700
     40 HD3          4.0550    -3.4230     2.1610 h4         1 RC7       0.150000
     41 HNE1         3.7380    -5.7090     0.9350 hn         1 RC7       0.340000
     42 HE3          1.4050    -5.9040    -0.0820 h5         1 RC7       0.045100
@<TRIPOS>BOND
     1     1     2 1   
     2     1     6 1   
     3     1    10 1   
     4     1    33 1   
     5     2     3 2   
     6     3     4 1   
     7     3    11 1   
     8     4     5 2   
     9     4     6 1   
    10     6     7 1   
    11     7     8 1   
    12     7    34 1   
    13     7    35 1   
    14     8     9 1   
    15     8    25 1   
    16    10    19 1   
    17    10    36 1   
    18    10    37 1   
    19    11    12 1   
    20    11    31 1   
    21    11    32 1   
    22    12    13 ar  
    23    12    14 ar  
    24    13    15 ar  
    25    13    29 1   
    26    14    16 ar  
    27    14    28 1   
    28    15    17 ar  
    29    15    30 1   
    30    16    17 ar  
    31    16    27 1   
    32    17    18 1   
    33    18    26 1   
    34    19    20 1   
    35    19    38 1   
    36    19    39 1   
    37    20    21 1   
    38    20    22 2   
    39    21    24 2   
    40    22    23 1   
    41    22    40 1   
    42    23    24 1   
    43    23    41 1   
    44    24    42 1   
@<TRIPOS>SUBSTRUCTURE
     1 RC7         1 TEMP              0 ****  ****    0 ROOT
