@<TRIPOS>MOLECULE
RC7
   42    44     1     0     0
SMALL
abcg2


@<TRIPOS>ATOM
      1 C1           0.8960     0.6900     1.1290 c5         1 RC7       0.261900
      2 N2          -0.5040     0.7130     0.7850 n2         1 RC7      -0.566900
      3 CA2         -0.7460     1.7930     0.1670 ce         1 RC7       0.347300
      4 C2           0.4730     2.6580     0.0450 c          1 RC7       0.436700
      5 O2           0.5570     3.7570    -0.4800 o          1 RC7      -0.552000
      6 N3           1.4230     1.9580     0.6740 n          1 RC7      -0.374800
      7 CA3          2.7990     2.3570     0.7610 c3         1 RC7      -0.039000
      8 C            3.6170     2.1590    -0.5370 c          1 RC7       0.713000
      9 O            3.0370     1.6840    -1.5250 o          1 RC7      -0.720000
     10 CA1          1.5870    -0.5170     0.5020 c3         1 RC7      -0.072400
     11 CB2         -2.0630     2.2090    -0.3930 c3         1 RC7      -0.050400
     12 CG2         -3.1230     1.1520    -0.2860 ca         1 RC7      -0.091300
     13 CD1         -3.1040     0.0430    -1.1250 ca         1 RC7      -0.057500
     14 CD2         -4.1390     1.2360     0.6600 ca         1 RC7      -0.057500
     15 CE1         -4.0670    -0.9500    -1.0310 ca         1 RC7      -0.178500
     16 CE2         -5.1120     0.2530     0.7680 ca         1 RC7      -0.178500
     17 CZ          -5.0800    -0.8490    -0.0800 ca         1 RC7       0.123100
     18 OH          -6.0470    -1.7820     0.0530 oh         1 RC7      -0.546100
     19 CB1          1.0350    -1.8350     1.0400 c3         1 RC7      -0.093700
     20 CG1          1.7150    -3.0200     0.4440 cc         1 RC7       0.266300
     21 ND1          1.5890    -3.3410    -0.8820 nc         1 RC7      -0.659000
     22 CD3          2.5400    -3.9220     1.0580 cd         1 RC7      -0.245000
     23 NE1          2.9140    -4.8010     0.0810 na         1 RC7      -0.309500
     24 CE3          2.3200    -4.4120    -1.0610 cd         1 RC7       0.381400
     25 OXT          4.8080     2.5140    -0.4430 o          1 RC7      -0.720000
     26 HOH         -5.9090    -2.4970    -0.5780 ho         1 RC7       0.457000
     27 HE2         -5.8970     0.3400     1.5100 ha         1 RC7       0.111500
     28 HD2         -4.1780     2.0870     1.3290 ha         1 RC7       0.117500
     29 HD1         -2.3260    -0.0540    -1.8720 ha         1 RC7       0.117500
     30 HE1         -4.0310    -1.8010    -1.7010 ha         1 RC7       0.111500
     31 HB21        -2.3740     3.1260     0.1160 hc         1 RC7       0.069200
     32 HB22        -1.9060     2.5010    -1.4360 hc         1 RC7       0.069200
     33 H1           0.9850     0.6230     2.2210 h2         1 RC7       0.062700
     34 HA31         2.8450     3.4110     1.0460 h1         1 RC7       0.036200
     35 HA32         3.2680     1.8010     1.5750 h1         1 RC7       0.036200
     36 HA11         1.4770    -0.4640    -0.5820 hc         1 RC7       0.082200
     37 HA12         2.6570    -0.4580     0.7150 hc         1 RC7       0.082200
     38 HB11         1.1510    -1.8650     2.1270 hc         1 RC7       0.045700
     39 HB12        -0.0380    -1.8840     0.8400 hc         1 RC7       0.045700
     40 HD3          2.8810    -4.0080     2.0760 h4         1 RC7       0.150000
     41 HNE1         3.5160    -5.6000     0.1970 hn         1 RC7       0.340000
     42 HE3          2.4510    -4.9450    -1.9910 h5         1 RC7       0.045100
@<TRIPOS>BOND
     1     1     2 1   
     2     1     6 1   
     3     1    10 1   
     4     1    33 1   
     5     2     3 2   
     6     3     4 1   
     7     3    11 1   
     8     4     5 2   
     9     4     6 1   
    10     6     7 1   
    11     7     8 1   
    12     7    34 1   
    13     7    35 1   
    14     8     9 1   
    15     8    25 1   
    16    10    19 1   
    17    10    36 1   
    18    10    37 1   
    19    11    12 1   
    20    11    31 1   
    21    11    32 1   
    22    12    13 ar  
    23    12    14 ar  
    24    13    15 ar  
    25    13    29 1   
    26    14    16 ar  
    27    14    28 1   
    28    15    17 ar  
    29    15    30 1   
    30    16    17 ar  
    31    16    27 1   
    32    17    18 1   
    33    18    26 1   
    34    19    20 1   
    35    19    38 1   
    36    19    39 1   
    37    20    21 1   
    38    20    22 2   
    39    21    24 2   
    40    22    23 1   
    41    22    40 1   
    42    23    24 1   
    43    23    41 1   
    44    24    42 1   
@<TRIPOS>SUBSTRUCTURE
     1 RC7         1 TEMP              0 ****  ****    0 ROOT
