@<TRIPOS>MOLECULE
RC8
   61    64     1     0     0
SMALL
abcg2


@<TRIPOS>ATOM
      1 C2           2.8120     0.5340    -0.2170 ca         1 RC8       0.440900
      2 C4           3.1990    -1.6390    -0.3140 ca         1 RC8       0.170500
      3 C5           2.0980    -1.8710    -1.1250 ca         1 RC8      -0.147600
      4 C6           1.3400    -0.7340    -1.4660 ca         1 RC8       0.482900
      5 C8           2.9900    -3.7570    -0.8150 cc         1 RC8       0.387700
      6 C10          5.9970    -3.8860    -0.1690 c3         1 RC8      -0.106100
      7 C12          2.3710     2.9660     0.0540 c3         1 RC8       0.251500
      8 C15          1.2800     3.0720     1.1130 c3         1 RC8       0.133600
      9 C13          3.2900     4.1870     0.0390 c3         1 RC8      -0.083400
     10 N2           3.1650     1.7670     0.2110 nu         1 RC8      -0.914100
     11 N1           1.7200     0.4490    -0.9930 nb         1 RC8      -0.365000
     12 N9           3.7680    -2.8630    -0.1270 na         1 RC8      -0.287300
     13 N7           1.9840    -3.2050    -1.4270 nd         1 RC8      -0.546100
     14 N3           3.6030    -0.4700     0.1710 nb         1 RC8      -0.300000
     15 N6           0.2600    -0.8240    -2.2560 nu         1 RC8      -0.916100
     16 CA          -0.6040     0.2770    -2.6090 c3         1 RC8       0.272100
     17 C1          -1.8700     0.3190    -1.7910 ca         1 RC8      -0.104300
     18 C18         -3.1150     0.2110    -2.3990 ca         1 RC8      -0.105000
     19 C17         -4.2820     0.2400    -1.6490 ca         1 RC8      -0.085500
     20 C16         -4.2360     0.3670    -0.2620 cp         1 RC8      -0.142500
     21 C3          -2.9830     0.4840     0.3460 ca         1 RC8      -0.085500
     22 C7          -1.8220     0.4600    -0.4060 ca         1 RC8      -0.105000
     23 C1B         -5.4860     0.3790     0.5280 cp         1 RC8       0.408500
     24 N1B         -6.6050     0.6980    -0.1240 nb         1 RC8      -0.675000
     25 C5B         -7.7520     0.7150     0.5370 ca         1 RC8       0.343900
     26 C4B         -7.8620     0.4200     1.8880 ca         1 RC8      -0.166000
     27 C3B         -6.7040     0.0800     2.5710 ca         1 RC8      -0.073000
     28 C2B         -5.5020     0.0550     1.8850 ca         1 RC8      -0.153000
     29 H8           3.2210    -4.8120    -0.8310 h5         1 RC8       0.061800
     30 H9           5.3560    -2.1800     0.9500 h1         1 RC8       0.089700
     31 H10          6.2430    -3.3280    -1.0720 hc         1 RC8       0.045367
     32 H10A         6.9110    -4.0140     0.4100 hc         1 RC8       0.045367
     33 H10B         5.6520    -4.8790    -0.4610 hc         1 RC8       0.045367
     34 H12          1.8620     2.9060    -0.9100 h1         1 RC8       0.080700
     35 H14          3.7390     4.1530    -2.0840 hc         1 RC8       0.035700
     36 H14A         4.8820     5.0870    -1.1230 hc         1 RC8       0.035700
     37 H14B         4.9360     3.3270    -1.0910 hc         1 RC8       0.035700
     38 HO1          1.1740     3.1520     3.0460 ho         1 RC8       0.442000
     39 H15          0.6680     3.9580     0.8980 h1         1 RC8       0.028700
     40 H15A         0.6200     2.2000     1.0250 h1         1 RC8       0.028700
     41 H13          2.6620     5.0810    -0.0090 hc         1 RC8       0.049700
     42 H13A         3.8380     4.2510     0.9830 hc         1 RC8       0.049700
     43 HN2          3.9040     1.7880     0.8950 hn         1 RC8       0.505000
     44 H11          4.1810    -4.9050     1.6940 hc         1 RC8       0.045367
     45 H11A         5.4750    -4.0670     2.5470 hc         1 RC8       0.045367
     46 H11B         3.8510    -3.3760     2.5210 hc         1 RC8       0.045367
     47 HN6         -0.0280    -1.7480    -2.5350 hn         1 RC8       0.513000
     48 HA          -0.0400     1.2010    -2.4840 h1         1 RC8       0.067700
     49 HA'A        -0.8550     0.1940    -3.6680 h1         1 RC8       0.067700
     50 H6          -3.1790     0.1000    -3.4750 ha         1 RC8       0.118500
     51 H5          -5.2390     0.1490    -2.1460 ha         1 RC8       0.122000
     52 H3          -2.9020     0.6160     1.4170 ha         1 RC8       0.122000
     53 H2          -0.8660     0.5650     0.0930 ha         1 RC8       0.118500
     54 H5B         -8.6340     0.9810    -0.0360 h4         1 RC8       0.019100
     55 H4B         -8.8240     0.4500     2.3810 ha         1 RC8       0.124000
     56 H3B         -6.7360    -0.1690     3.6230 ha         1 RC8       0.119000
     57 H2B         -4.5950    -0.2300     2.4000 ha         1 RC8       0.124000
     58 C9           4.9570    -3.1550     0.6670 c3         1 RC8       0.092300
     59 C14          4.2670     4.1860    -1.1290 c3         1 RC8      -0.088100
     60 O1           1.8740     3.1420     2.3880 oh         1 RC8      -0.664000
     61 C11          4.5880    -3.9200     1.9310 c3         1 RC8      -0.106100
@<TRIPOS>BOND
     1     1    10 1   
     2     1    11 ar  
     3     1    14 ar  
     4     2     3 ar  
     5     2    12 1   
     6     2    14 ar  
     7     3     4 ar  
     8     3    13 1   
     9     4    11 ar  
    10     4    15 1   
    11     5    12 1   
    12     5    13 2   
    13     5    29 1   
    14     6    31 1   
    15     6    32 1   
    16     6    33 1   
    17     6    58 1   
    18     7     8 1   
    19     7     9 1   
    20     7    10 1   
    21     7    34 1   
    22     8    39 1   
    23     8    40 1   
    24     8    60 1   
    25     9    41 1   
    26     9    42 1   
    27     9    59 1   
    28    10    43 1   
    29    12    58 1   
    30    15    16 1   
    31    15    47 1   
    32    16    17 1   
    33    16    48 1   
    34    16    49 1   
    35    17    18 ar  
    36    17    22 ar  
    37    18    19 ar  
    38    18    50 1   
    39    19    20 ar  
    40    19    51 1   
    41    20    21 ar  
    42    20    23 1   
    43    21    22 ar  
    44    21    52 1   
    45    22    53 1   
    46    23    24 ar  
    47    23    28 ar  
    48    24    25 ar  
    49    25    26 ar  
    50    25    54 1   
    51    26    27 ar  
    52    26    55 1   
    53    27    28 ar  
    54    27    56 1   
    55    28    57 1   
    56    30    58 1   
    57    35    59 1   
    58    36    59 1   
    59    37    59 1   
    60    38    60 1   
    61    44    61 1   
    62    45    61 1   
    63    46    61 1   
    64    58    61 1   
@<TRIPOS>SUBSTRUCTURE
     1 RC8         1 TEMP              0 ****  ****    0 ROOT
