@<TRIPOS>MOLECULE
RC8
   61    64     1     0     0
SMALL
No Charge or Current Charge


@<TRIPOS>ATOM
      1 C2           2.0800    -0.1240    -0.1270 ca         1 RC8       0.440900
      2 C4           3.1310    -2.0670    -0.6650 ca         1 RC8       0.170500
      3 C5           2.2760    -2.2370    -1.7260 ca         1 RC8      -0.147600
      4 C6           1.2940    -1.2520    -1.9490 ca         1 RC8       0.482900
      5 C8           3.5760    -3.9580    -1.7850 cc         1 RC8       0.387700
      6 C10          6.4190    -3.4080    -0.4200 c3         1 RC8      -0.106100
      7 C12          0.8010     1.8410     0.8830 c3         1 RC8       0.251500
      8 C15         -0.3510     1.1260     1.6670 c3         1 RC8       0.133600
      9 C13          1.2260     3.1770     1.5460 c3         1 RC8      -0.083400
     10 N2           1.9760     0.9500     0.7360 nu         1 RC8      -0.914100
     11 N1           1.2050    -0.1810    -1.1460 nb         1 RC8      -0.365000
     12 N9           3.9540    -3.1570    -0.7040 na         1 RC8      -0.287300
     13 N7           2.5340    -3.4140    -2.4430 nd         1 RC8      -0.546100
     14 N3           3.0520    -1.0090     0.1630 nb         1 RC8      -0.300000
     15 N6           0.3880    -1.3730    -2.9960 nu         1 RC8      -0.916100
     16 CA          -0.4990    -0.3310    -3.5540 c3         1 RC8       0.272100
     17 C1          -1.4600     0.2390    -2.5090 ca         1 RC8      -0.104300
     18 C18         -2.3180    -0.6050    -1.7810 ca         1 RC8      -0.105000
     19 C17         -3.1750    -0.0770    -0.7990 ca         1 RC8      -0.085500
     20 C16         -3.2030     1.3150    -0.5100 cp         1 RC8      -0.142500
     21 C3          -2.3410     2.1510    -1.2690 ca         1 RC8      -0.085500
     22 C7          -1.4850     1.6220    -2.2490 ca         1 RC8      -0.105000
     23 C1B         -4.1100     1.8790     0.5550 cp         1 RC8       0.408500
     24 N1B         -5.1920     1.1370     0.8910 nb         1 RC8      -0.675000
     25 C5B         -6.0350     1.5940     1.8450 ca         1 RC8       0.343900
     26 C4B         -5.8360     2.8100     2.5170 ca         1 RC8      -0.166000
     27 C3B         -4.7170     3.5900     2.1950 ca         1 RC8      -0.073000
     28 C2B         -3.8450     3.1140     1.2030 ca         1 RC8      -0.153000
     29 H8           4.0790    -4.8870    -2.0280 h5         1 RC8       0.061800
     30 H9           5.0460    -2.5440     0.9740 h1         1 RC8       0.089700
     31 H10          6.5870    -2.4750    -0.9720 hc         1 RC8       0.045367
     32 H10A         7.2190    -3.5120     0.3220 hc         1 RC8       0.045367
     33 H10B         6.4940    -4.2440    -1.1260 hc         1 RC8       0.045367
     34 H12          0.4050     2.0970    -0.1100 h1         1 RC8       0.080700
     35 H14          1.7220     4.2620    -0.2880 hc         1 RC8       0.035700
     36 H14A         2.4010     4.9820     1.1880 hc         1 RC8       0.035700
     37 H14B         3.1270     3.5130     0.5060 hc         1 RC8       0.035700
     38 HO1         -0.6970     0.2330     3.3880 ho         1 RC8       0.442000
     39 H15         -1.2140     1.8030     1.7170 h1         1 RC8       0.028700
     40 H15A        -0.6680     0.2430     1.0970 h1         1 RC8       0.028700
     41 H13          0.3250     3.7690     1.7490 hc         1 RC8       0.049700
     42 H13A         1.6950     2.9790     2.5170 hc         1 RC8       0.049700
     43 HN2          2.5590     0.8560     1.5640 hn         1 RC8       0.505000
     44 H11          4.7940    -5.5550     0.4590 hc         1 RC8       0.045367
     45 H11A         5.5700    -4.7860     1.8610 hc         1 RC8       0.045367
     46 H11B         3.8220    -4.6090     1.6090 hc         1 RC8       0.045367
     47 HN6          0.5440    -2.2090    -3.5580 hn         1 RC8       0.513000
     48 HA           0.1090     0.4840    -3.9730 h1         1 RC8       0.067700
     49 HA'A        -1.0900    -0.7480    -4.3820 h1         1 RC8       0.067700
     50 H6          -2.3110    -1.6770    -1.9670 ha         1 RC8       0.118500
     51 H5          -3.8130    -0.7630    -0.2470 ha         1 RC8       0.122000
     52 H3          -2.3360     3.2270    -1.1120 ha         1 RC8       0.122000
     53 H2          -0.8320     2.2920    -2.8050 ha         1 RC8       0.118500
     54 H5B         -6.8930     0.9640     2.0780 h4         1 RC8       0.019100
     55 H4B         -6.5410     3.1330     3.2780 ha         1 RC8       0.124000
     56 H3B         -4.5270     4.5350     2.7020 ha         1 RC8       0.119000
     57 H2B         -2.9630     3.6940     0.9510 ha         1 RC8       0.124000
     58 C9           5.0390    -3.3870     0.2690 c3         1 RC8       0.092300
     59 C14          2.1790     4.0340     0.6830 c3         1 RC8      -0.088100
     60 O1           0.0500     0.7390     2.9980 oh         1 RC8      -0.664000
     61 C11          4.7910    -4.6640     1.0980 c3         1 RC8      -0.106100
@<TRIPOS>BOND
     1     1    10 1   
     2     1    11 ar  
     3     1    14 ar  
     4     2     3 ar  
     5     2    12 1   
     6     2    14 ar  
     7     3     4 ar  
     8     3    13 1   
     9     4    11 ar  
    10     4    15 1   
    11     5    12 1   
    12     5    13 2   
    13     5    29 1   
    14     6    31 1   
    15     6    32 1   
    16     6    33 1   
    17     6    58 1   
    18     7     8 1   
    19     7     9 1   
    20     7    10 1   
    21     7    34 1   
    22     8    39 1   
    23     8    40 1   
    24     8    60 1   
    25     9    41 1   
    26     9    42 1   
    27     9    59 1   
    28    10    43 1   
    29    12    58 1   
    30    15    16 1   
    31    15    47 1   
    32    16    17 1   
    33    16    48 1   
    34    16    49 1   
    35    17    18 ar  
    36    17    22 ar  
    37    18    19 ar  
    38    18    50 1   
    39    19    20 ar  
    40    19    51 1   
    41    20    21 ar  
    42    20    23 1   
    43    21    22 ar  
    44    21    52 1   
    45    22    53 1   
    46    23    24 ar  
    47    23    28 ar  
    48    24    25 ar  
    49    25    26 ar  
    50    25    54 1   
    51    26    27 ar  
    52    26    55 1   
    53    27    28 ar  
    54    27    56 1   
    55    28    57 1   
    56    30    58 1   
    57    35    59 1   
    58    36    59 1   
    59    37    59 1   
    60    38    60 1   
    61    44    61 1   
    62    45    61 1   
    63    46    61 1   
    64    58    61 1   
@<TRIPOS>SUBSTRUCTURE
     1 RC8         1 TEMP              0 ****  ****    0 ROOT
