@<TRIPOS>MOLECULE
RC9
   57    61     1     0     0
SMALL
No Charge or Current Charge


@<TRIPOS>ATOM
      1 N1         -20.3420     5.2180    27.4170 ns         1 RC9      -0.161000
      2 N3         -19.7050    11.3370    32.2510 n1         1 RC9      -0.437000
      3 C4         -21.5260     6.3380    30.9230 c6         1 RC9       0.284100
      4 C5         -22.5780     6.4990    28.7200 c6         1 RC9       0.241800
      5 C6         -22.5870     4.9640    28.5040 c6         1 RC9      -0.114400
      6 C7         -21.4860     4.4430    27.5540 c          1 RC9       0.594100
      7 C8         -19.1060     4.9290    26.7680 ca         1 RC9      -0.093000
      8 C10        -16.6830     4.2650    25.6090 ca         1 RC9       0.350900
      9 C13        -16.5590     7.9740    25.2860 ca         1 RC9      -0.108000
     10 C15        -18.6490     7.3310    26.3590 ca         1 RC9      -0.112000
     11 C17        -22.4320     4.2060    29.8300 ca         1 RC9      -0.053300
     12 C20        -18.8480    10.1750    30.0280 cy         1 RC9       0.014100
     13 C21        -18.9560    11.0600    28.7270 cy         1 RC9      -0.072400
     14 C22        -17.5740    11.6830    29.1130 cy         1 RC9      -0.089400
     15 C24        -19.3510    10.8200    31.2690 c1         1 RC9       0.302900
     16 C23        -17.2920    10.3170    29.8220 cy         1 RC9      -0.072400
     17 C19        -19.3770     8.7140    29.9630 c3         1 RC9      -0.316400
     18 O1         -21.3120     9.0710    28.1900 o          1 RC9      -0.542000
     19 O2         -21.9510     9.1950    30.6430 o          1 RC9      -0.542000
     20 N          -21.4370     6.9250    29.5620 n3         1 RC9      -0.816500
     21 C3         -21.8880     4.8510    30.9620 ca         1 RC9      -0.075300
     22 C2         -21.7200     4.1310    32.1620 ca         1 RC9      -0.098000
     23 C1         -22.0860     2.7760    32.2350 ca         1 RC9      -0.087000
     24 C18        -22.8010     2.8480    29.9120 ca         1 RC9      -0.084000
     25 C          -22.6280     2.1370    31.1100 ca         1 RC9       0.127000
     26 Cl         -23.0880     0.4420    31.1990 cl         1 RC9      -0.203000
     27 O          -21.6400     3.3920    26.9410 o          1 RC9      -0.557100
     28 C16        -18.2770     5.9710    26.2870 ca         1 RC9      -0.035000
     29 C14        -17.7920     8.3260    25.8580 ca         1 RC9      -0.078000
     30 C12        -16.1830     6.6240    25.2040 ca         1 RC9      -0.082000
     31 C11        -17.0420     5.6230    25.6980 ca         1 RC9      -0.090000
     32 N2         -17.4660     3.2620    26.0650 nb         1 RC9      -0.646000
     33 C9         -18.6490     3.5950    26.6310 ca         1 RC9       0.329900
     34 H1         -20.3550     6.0830    27.9450 hn         1 RC9       0.155000
     35 H2         -20.5730     6.4700    31.4560 h1         1 RC9       0.070200
     36 H3         -22.2910     6.8600    31.5170 h1         1 RC9       0.070200
     37 H4         -22.5550     6.9780    27.7290 h1         1 RC9       0.069700
     38 H5         -23.5270     6.8010    29.1900 h1         1 RC9       0.069700
     39 H6         -23.5460     4.6640    28.0620 hc         1 RC9       0.079700
     40 H7         -15.7360     3.9670    25.1580 h4         1 RC9       0.024100
     41 H8         -15.8980     8.7470    24.9000 ha         1 RC9       0.122000
     42 H9         -19.6030     7.6270    26.7840 ha         1 RC9       0.115000
     43 H10        -19.7980    11.7610    28.6830 hc         1 RC9       0.067200
     44 H11        -18.9390    10.4930    27.7900 hc         1 RC9       0.067200
     45 H12        -17.6300    12.5480    29.7850 hc         1 RC9       0.057200
     46 H13        -16.9120    11.9340    28.2770 hc         1 RC9       0.057200
     47 H14        -16.8510     9.5590    29.1630 hc         1 RC9       0.067200
     48 H15        -16.6840    10.3680    30.7320 hc         1 RC9       0.067200
     49 H16        -19.2230     8.2030    30.9180 h1         1 RC9       0.107700
     50 H17        -18.8690     8.1620    29.1660 h1         1 RC9       0.107700
     51 H18        -21.3110     4.6230    33.0420 ha         1 RC9       0.124000
     52 H19        -21.9550     2.2240    33.1620 ha         1 RC9       0.135000
     53 H20        -23.2170     2.3390    29.0460 ha         1 RC9       0.130000
     54 H21        -18.0860     9.3720    25.9040 ha         1 RC9       0.124000
     55 H22        -15.2290     6.3560    24.7520 ha         1 RC9       0.121000
     56 H23        -19.2310     2.7590    27.0130 h4         1 RC9       0.043100
     57 S          -21.1370     8.6170    29.5710 s6         1 RC9       1.268100
@<TRIPOS>BOND
     1     1     6 1   
     2     1     7 1   
     3     1    34 1   
     4     2    15 3   
     5     3    20 1   
     6     3    21 1   
     7     3    35 1   
     8     3    36 1   
     9     4     5 1   
    10     4    20 1   
    11     4    37 1   
    12     4    38 1   
    13     5     6 1   
    14     5    11 1   
    15     5    39 1   
    16     6    27 2   
    17     7    28 ar  
    18     7    33 ar  
    19     8    31 ar  
    20     8    32 ar  
    21     8    40 1   
    22     9    29 ar  
    23     9    30 ar  
    24     9    41 1   
    25    10    28 ar  
    26    10    29 ar  
    27    10    42 1   
    28    11    21 ar  
    29    11    24 ar  
    30    12    13 1   
    31    12    15 1   
    32    12    16 1   
    33    12    17 1   
    34    13    14 1   
    35    13    43 1   
    36    13    44 1   
    37    14    16 1   
    38    14    45 1   
    39    14    46 1   
    40    16    47 1   
    41    16    48 1   
    42    17    49 1   
    43    17    50 1   
    44    17    57 1   
    45    18    57 2   
    46    19    57 2   
    47    20    57 1   
    48    21    22 ar  
    49    22    23 ar  
    50    22    51 1   
    51    23    25 ar  
    52    23    52 1   
    53    24    25 ar  
    54    24    53 1   
    55    25    26 1   
    56    28    31 ar  
    57    29    54 1   
    58    30    31 ar  
    59    30    55 1   
    60    32    33 ar  
    61    33    56 1   
@<TRIPOS>SUBSTRUCTURE
     1 RC9         1 TEMP              0 ****  ****    0 ROOT
