@<TRIPOS>MOLECULE
RC9
   57    61     1     0     0
SMALL
abcg2


@<TRIPOS>ATOM
      1 N1         -20.0900     5.3270    27.2180 ns         1 RC9      -0.161000
      2 N3         -18.2390    10.2170    32.1940 n1         1 RC9      -0.437000
      3 C4         -22.4020     6.4950    31.1880 c6         1 RC9       0.284100
      4 C5         -22.5100     6.4370    28.6970 c6         1 RC9       0.241800
      5 C6         -22.0230     4.9810    28.6520 c6         1 RC9      -0.114400
      6 C7         -20.5020     4.9290    28.4560 c          1 RC9       0.594100
      7 C8         -18.7620     5.6390    26.8600 ca         1 RC9      -0.093000
      8 C10        -16.1530     6.1960    26.2490 ca         1 RC9       0.350900
      9 C13        -17.7950     9.1500    24.7010 ca         1 RC9      -0.108000
     10 C15        -19.4930     7.7580    25.7280 ca         1 RC9      -0.112000
     11 C17        -22.4180     4.2770    29.9250 ca         1 RC9      -0.053300
     12 C20        -18.3370     8.9470    29.9190 cy         1 RC9       0.014100
     13 C21        -18.2240     9.9360    28.7090 cy         1 RC9      -0.072400
     14 C22        -16.6970     9.7140    28.6870 cy         1 RC9      -0.089400
     15 C24        -18.3110     9.6530    31.1920 c1         1 RC9       0.302900
     16 C23        -16.8920     8.4480    29.5480 cy         1 RC9      -0.072400
     17 C19        -19.4060     7.8590    29.8850 c3         1 RC9      -0.316400
     18 O1         -21.3380     9.0940    28.6030 o          1 RC9      -0.542000
     19 O2         -21.3430     9.1640    31.0910 o          1 RC9      -0.542000
     20 N          -22.0110     7.0860    29.9050 n3         1 RC9      -0.816500
     21 C3         -22.5730     4.9960    31.1090 ca         1 RC9      -0.075300
     22 C2         -22.9250     4.3170    32.2770 ca         1 RC9      -0.098000
     23 C1         -23.1150     2.9450    32.2830 ca         1 RC9      -0.087000
     24 C18        -22.6140     2.8960    29.9200 ca         1 RC9      -0.084000
     25 C          -22.9570     2.2460    31.0920 ca         1 RC9       0.127000
     26 CL         -23.2020     0.5110    31.0740 cl         1 RC9      -0.203000
     27 O          -19.7330     4.6180    29.3510 o          1 RC9      -0.557100
     28 C16        -18.5020     6.8310    26.1260 ca         1 RC9      -0.035000
     29 C14        -19.1420     8.8880    25.0320 ca         1 RC9      -0.078000
     30 C12        -16.8130     8.2740    25.0850 ca         1 RC9      -0.082000
     31 C11        -17.1430     7.1040    25.8050 ca         1 RC9      -0.090000
     32 N2         -16.4170     5.1070    26.9320 nb         1 RC9      -0.646000
     33 C9         -17.7120     4.8300    27.2260 ca         1 RC9       0.329900
     34 H1         -20.8090     5.5680    26.5520 hn         1 RC9       0.155000
     35 H2         -21.6430     6.7320    31.9330 h1         1 RC9       0.070200
     36 H3         -23.3390     6.9440    31.5300 h1         1 RC9       0.070200
     37 H4         -22.1870     7.0050    27.8310 h1         1 RC9       0.069700
     38 H5         -23.6030     6.4430    28.7120 h1         1 RC9       0.069700
     39 H6         -22.4950     4.4920    27.7970 hc         1 RC9       0.079700
     40 H7         -15.1120     6.4010    26.0170 h4         1 RC9       0.024100
     41 H8         -17.5440    10.0480    24.1530 ha         1 RC9       0.122000
     42 H9         -20.5280     7.5980    25.9910 ha         1 RC9       0.115000
     43 H10        -18.6010    10.9430    28.8710 hc         1 RC9       0.067200
     44 H11        -18.7160     9.5020    27.8420 hc         1 RC9       0.067200
     45 H12        -16.1580    10.4950    29.2230 hc         1 RC9       0.057200
     46 H13        -16.2420     9.5700    27.7100 hc         1 RC9       0.057200
     47 H14        -16.9690     7.5450    28.9450 hc         1 RC9       0.067200
     48 H15        -16.2130     8.2750    30.3800 hc         1 RC9       0.067200
     49 H16        -19.3160     7.1860    30.7370 h1         1 RC9       0.107700
     50 H17        -19.2820     7.2870    28.9710 h1         1 RC9       0.107700
     51 H18        -23.0500     4.8720    33.1990 ha         1 RC9       0.124000
     52 H19        -23.3840     2.4260    33.1920 ha         1 RC9       0.135000
     53 H20        -22.4970     2.3370    29.0000 ha         1 RC9       0.130000
     54 H21        -19.9080     9.5950    24.7410 ha         1 RC9       0.124000
     55 H22        -15.7730     8.4670    24.8510 ha         1 RC9       0.121000
     56 H23        -17.8960     3.9220    27.7800 h4         1 RC9       0.043100
     57 S          -21.1060     8.4350    29.8660 s6         1 RC9       1.268100
@<TRIPOS>BOND
     1     1     6 1   
     2     1     7 1   
     3     1    34 1   
     4     2    15 3   
     5     3    20 1   
     6     3    21 1   
     7     3    35 1   
     8     3    36 1   
     9     4     5 1   
    10     4    20 1   
    11     4    37 1   
    12     4    38 1   
    13     5     6 1   
    14     5    11 1   
    15     5    39 1   
    16     6    27 2   
    17     7    28 ar  
    18     7    33 ar  
    19     8    31 ar  
    20     8    32 ar  
    21     8    40 1   
    22     9    29 ar  
    23     9    30 ar  
    24     9    41 1   
    25    10    28 ar  
    26    10    29 ar  
    27    10    42 1   
    28    11    21 ar  
    29    11    24 ar  
    30    12    13 1   
    31    12    15 1   
    32    12    16 1   
    33    12    17 1   
    34    13    14 1   
    35    13    43 1   
    36    13    44 1   
    37    14    16 1   
    38    14    45 1   
    39    14    46 1   
    40    16    47 1   
    41    16    48 1   
    42    17    49 1   
    43    17    50 1   
    44    17    57 1   
    45    18    57 2   
    46    19    57 2   
    47    20    57 1   
    48    21    22 ar  
    49    22    23 ar  
    50    22    51 1   
    51    23    25 ar  
    52    23    52 1   
    53    24    25 ar  
    54    24    53 1   
    55    25    26 1   
    56    28    31 ar  
    57    29    54 1   
    58    30    31 ar  
    59    30    55 1   
    60    32    33 ar  
    61    33    56 1   
@<TRIPOS>SUBSTRUCTURE
     1 RC9         1 TEMP              0 ****  ****    0 ROOT
