@<TRIPOS>MOLECULE
RCA
   37    38     1     0     0
SMALL
No Charge or Current Charge


@<TRIPOS>ATOM
      1 O2           1.7520    -0.4910     4.8050 o          1 RCA      -0.533000
      2 C3           1.4020     0.0830     2.4920 cc         1 RCA      -0.270400
      3 C4           2.8920     0.0150     2.2040 c3         1 RCA      -0.026900
      4 C5           0.4330     0.4080     1.5610 cd         1 RCA       0.102400
      5 C1          -1.3280     0.1410     3.2250 c          1 RCA       0.617000
      6 N1          -0.8780     0.4150     1.9750 ns         1 RCA      -0.522600
      7 C2           0.9900    -0.2130     3.8920 c          1 RCA       0.588200
      8 N2          -0.3510    -0.1490     4.1130 ns         1 RCA      -0.469500
      9 C11          0.9780    -0.0230    -2.3560 c6         1 RCA       0.118700
     10 N4           0.2860    -0.7100    -3.4540 ns         1 RCA      -0.494900
     11 C10         -1.0590    -0.6420    -3.6610 c          1 RCA       0.619000
     12 C12          1.1810     1.4790    -2.7690 c3         1 RCA       0.133600
     13 O5           1.8030     1.6120    -4.0590 oh         1 RCA      -0.660000
     14 C7           0.1770    -0.2160    -1.0190 c6         1 RCA      -0.129000
     15 N3          -1.7720    -0.2240    -2.5860 ns         1 RCA      -0.477500
     16 C9          -1.3530    -0.0830    -1.2970 c          1 RCA       0.582000
     17 C6           0.6580     0.7930     0.1050 c3         1 RCA      -0.043200
     18 C8           0.4140    -1.6790    -0.5070 c3         1 RCA      -0.088100
     19 H43          3.4410    -0.5800     2.9430 hc         1 RCA       0.046367
     20 H42          3.0860    -0.4470     1.2290 hc         1 RCA       0.046367
     21 H41          3.3300     1.0200     2.1930 hc         1 RCA       0.046367
     22 H1          -1.6220     0.5710     1.2960 hn         1 RCA       0.492000
     23 H2          -0.6540    -0.3500     5.0510 hn         1 RCA       0.344500
     24 H11          1.9800    -0.4660    -2.2450 h1         1 RCA       0.083700
     25 H4           0.8350    -0.9960    -4.2560 hn         1 RCA       0.350500
     26 H122         0.2000     1.9750    -2.7750 h1         1 RCA       0.033200
     27 H121         1.7990     1.9820    -2.0150 h1         1 RCA       0.033200
     28 H5           1.8790     2.5750    -4.2480 ho         1 RCA       0.458000
     29 H3          -2.7650    -0.1360    -2.7320 hn         1 RCA       0.347500
     30 H62          0.2040     1.7770    -0.0690 hc         1 RCA       0.073200
     31 H61          1.7310     0.9700    -0.0240 hc         1 RCA       0.073200
     32 H83         -0.1960    -1.9140     0.3740 hc         1 RCA       0.057700
     33 H82          0.1550    -2.4210    -1.2720 hc         1 RCA       0.057700
     34 H81          1.4640    -1.8450    -0.2360 hc         1 RCA       0.057700
     35 O1          -2.5070     0.1550     3.5150 o          1 RCA      -0.549000
     36 O4          -1.5780    -0.9410    -4.7190 o          1 RCA      -0.549000
     37 O3          -2.1680     0.1720    -0.4250 o          1 RCA      -0.548000
@<TRIPOS>BOND
     1     1     7 2   
     2     2     3 1   
     3     2     4 2   
     4     2     7 1   
     5     3    19 1   
     6     3    20 1   
     7     3    21 1   
     8     4     6 1   
     9     4    17 1   
    10     5     6 1   
    11     5     8 1   
    12     5    35 2   
    13     6    22 1   
    14     7     8 1   
    15     8    23 1   
    16     9    10 1   
    17     9    12 1   
    18     9    14 1   
    19     9    24 1   
    20    10    11 1   
    21    10    25 1   
    22    11    15 1   
    23    11    36 2   
    24    12    13 1   
    25    12    26 1   
    26    12    27 1   
    27    13    28 1   
    28    14    16 1   
    29    14    17 1   
    30    14    18 1   
    31    15    16 1   
    32    15    29 1   
    33    16    37 2   
    34    17    30 1   
    35    17    31 1   
    36    18    32 1   
    37    18    33 1   
    38    18    34 1   
@<TRIPOS>SUBSTRUCTURE
     1 RCA         1 TEMP              0 ****  ****    0 ROOT
