@<TRIPOS>MOLECULE
RCA
   37    38     1     0     0
SMALL
abcg2


@<TRIPOS>ATOM
      1 O2           1.8520    -0.6460     4.6120 o          1 RCA      -0.533000
      2 C3           1.3870     0.0210     2.3810 cc         1 RCA      -0.270400
      3 C4           2.8270    -0.0620     1.9650 c3         1 RCA      -0.026900
      4 C5           0.3870     0.4080     1.5550 cd         1 RCA       0.102400
      5 C1          -1.3150     0.1710     3.2550 c          1 RCA       0.617000
      6 N1          -0.9080     0.4750     1.9910 ns         1 RCA      -0.522600
      7 C2           1.0520    -0.3010     3.7590 c          1 RCA       0.588200
      8 N2          -0.2890    -0.1930     4.0850 ns         1 RCA      -0.469500
      9 C11          0.9870     0.0740    -2.2380 c6         1 RCA       0.118700
     10 N4           0.4530    -0.7460    -3.3060 ns         1 RCA      -0.494900
     11 C10         -0.8590    -0.8170    -3.5780 c          1 RCA       0.619000
     12 C12          1.0860     1.5380    -2.6710 c3         1 RCA       0.133600
     13 O5           1.8370     1.5690    -3.8580 oh         1 RCA      -0.660000
     14 C7           0.1440    -0.1510    -0.9680 c6         1 RCA      -0.129000
     15 N3          -1.6850    -0.3030    -2.5750 ns         1 RCA      -0.477500
     16 C9          -1.3190     0.0690    -1.3180 c          1 RCA       0.582000
     17 C6           0.6110     0.8320     0.1330 c3         1 RCA      -0.043200
     18 C8           0.2910    -1.6100    -0.5050 c3         1 RCA      -0.088100
     19 H43          3.4160    -0.5600     2.7300 hc         1 RCA       0.046367
     20 H42          2.9580    -0.6240     1.0410 hc         1 RCA       0.046367
     21 H41          3.2650     0.9260     1.8110 hc         1 RCA       0.046367
     22 H1          -1.6240     0.6870     1.2980 hn         1 RCA       0.492000
     23 H2          -0.5450    -0.4180     5.0380 hn         1 RCA       0.344500
     24 H11          1.9960    -0.2910    -2.0310 h1         1 RCA       0.083700
     25 H4           1.0750    -1.0240    -4.0500 hn         1 RCA       0.350500
     26 H122         0.0810     1.9580    -2.8160 h1         1 RCA       0.033200
     27 H121         1.5670     2.1230    -1.8800 h1         1 RCA       0.033200
     28 H5           1.9170     2.4850    -4.1400 ho         1 RCA       0.458000
     29 H3          -2.6730    -0.2740    -2.7960 hn         1 RCA       0.347500
     30 H62          0.1390     1.8080    -0.0110 hc         1 RCA       0.073200
     31 H61          1.6780     0.9990     0.0040 hc         1 RCA       0.073200
     32 H83         -0.3680    -1.8340     0.3330 hc         1 RCA       0.057700
     33 H82          0.0620    -2.3160    -1.3000 hc         1 RCA       0.057700
     34 H81          1.3180    -1.7950    -0.1870 hc         1 RCA       0.057700
     35 O1          -2.4750     0.2210     3.6140 o          1 RCA      -0.549000
     36 O4          -1.3430    -1.2900    -4.5870 o          1 RCA      -0.549000
     37 O3          -2.1450     0.5100    -0.5400 o          1 RCA      -0.548000
@<TRIPOS>BOND
     1     1     7 2   
     2     2     3 1   
     3     2     4 2   
     4     2     7 1   
     5     3    19 1   
     6     3    20 1   
     7     3    21 1   
     8     4     6 1   
     9     4    17 1   
    10     5     6 1   
    11     5     8 1   
    12     5    35 2   
    13     6    22 1   
    14     7     8 1   
    15     8    23 1   
    16     9    10 1   
    17     9    12 1   
    18     9    14 1   
    19     9    24 1   
    20    10    11 1   
    21    10    25 1   
    22    11    15 1   
    23    11    36 2   
    24    12    13 1   
    25    12    26 1   
    26    12    27 1   
    27    13    28 1   
    28    14    16 1   
    29    14    17 1   
    30    14    18 1   
    31    15    16 1   
    32    15    29 1   
    33    16    37 2   
    34    17    30 1   
    35    17    31 1   
    36    18    32 1   
    37    18    33 1   
    38    18    34 1   
@<TRIPOS>SUBSTRUCTURE
     1 RCA         1 TEMP              0 ****  ****    0 ROOT
