@<TRIPOS>MOLECULE
RCB
   78    81     1     0     0
SMALL
abcg2


@<TRIPOS>ATOM
      1 C1A          5.7760     0.1310     0.3750 c6         1 RCB       0.367300
      2 O1A          4.5690    -0.1570     0.9820 os         1 RCB      -0.444000
      3 C1B          0.5840    -0.4120     0.0110 c6         1 RCB       0.369300
      4 O1B         -0.5800    -0.4950    -0.7260 os         1 RCB      -0.442000
      5 C1C         -4.4490     0.8370    -0.6510 c6         1 RCB       0.363300
      6 O1C         -5.5960     1.5540    -0.3060 os         1 RCB      -0.334100
      7 C1D         -6.7390     0.9000    -0.0340 ca         1 RCB       0.193100
      8 C2A          6.7250     0.6710     1.4430 c6         1 RCB       0.110300
      9 O2A          6.2740     1.8890     1.9810 oh         1 RCB      -0.726000
     10 C2B          1.3910    -1.6820    -0.2320 c6         1 RCB       0.101300
     11 O2B          0.7290    -2.8250     0.2520 oh         1 RCB      -0.726000
     12 C2C         -3.4680     1.8010    -1.3040 c6         1 RCB       0.107300
     13 O2C         -3.9530     2.2950    -2.5250 oh         1 RCB      -0.716000
     14 C2D         -7.8870     1.6930     0.0320 ca         1 RCB      -0.176000
     15 O2D        -11.4560    -0.1410     0.7800 o          1 RCB      -0.405500
     16 C3A          8.0840     0.9200     0.8040 c6         1 RCB       0.139300
     17 O3A          9.0590     1.2830     1.7510 oh         1 RCB      -0.663000
     18 C3B          2.7230    -1.5840     0.5040 c6         1 RCB       0.174300
     19 O3B          3.5570    -2.6690     0.2040 oh         1 RCB      -0.687000
     20 C3C         -2.1670     1.0540    -1.5970 c6         1 RCB       0.173300
     21 O3C         -1.1740     1.9250    -2.0620 oh         1 RCB      -0.686000
     22 C3D         -9.1140     1.1230     0.2910 ca         1 RCB      -0.010000
     23 O3D        -10.5260    -2.0560     0.9150 o          1 RCB      -0.405500
     24 C4A          8.5780    -0.3380     0.0970 c6         1 RCB       0.141300
     25 O4A          9.7550    -0.0860    -0.6300 oh         1 RCB      -0.717000
     26 C4B          3.4430    -0.2930     0.1350 c6         1 RCB       0.147300
     27 C4C         -1.6490     0.3500    -0.3450 c6         1 RCB       0.149300
     28 C4D         -9.1970    -0.2520     0.4830 ca         1 RCB      -0.221200
     29 C5A          7.5070    -0.8360    -0.8760 c6         1 RCB       0.178300
     30 O5A          6.2990    -1.0450    -0.1740 os         1 RCB      -0.448000
     31 C5B          2.4940     0.9010     0.3310 c6         1 RCB       0.154300
     32 O5B          1.3190     0.6970    -0.4230 os         1 RCB      -0.445000
     33 C5C         -2.7690    -0.4950     0.2760 c6         1 RCB       0.154300
     34 O5C         -3.8960     0.3260     0.5200 os         1 RCB      -0.458000
     35 C5D         -8.0620    -1.0480     0.4320 ca         1 RCB      -0.010000
     36 C6A          7.9020    -2.1430    -1.5290 c3         1 RCB       0.173600
     37 O6A          6.9320    -2.4880    -2.4870 oh         1 RCB      -0.709000
     38 C6B          3.0980     2.2170    -0.1130 c3         1 RCB       0.169600
     39 O6B          2.1920     3.2500     0.1860 oh         1 RCB      -0.706000
     40 C6C         -2.3830    -1.1290     1.5950 c3         1 RCB       0.166600
     41 O6C         -3.4570    -1.9290     2.0270 oh         1 RCB      -0.712000
     42 C6D         -6.8290    -0.4750     0.1820 ca         1 RCB      -0.176000
     43 H1A          5.6520     0.8860    -0.4230 h2         1 RCB       0.029700
     44 H1B          0.3690    -0.3110     1.0920 h2         1 RCB       0.029700
     45 H2A          6.8310    -0.0990     2.2220 h1         1 RCB       0.071700
     46 HO2A         5.5120     1.7120     2.5430 ho         1 RCB       0.523000
     47 H2B          1.5860    -1.7600    -1.3120 h1         1 RCB       0.073700
     48 HO2B         0.0370    -3.0670    -0.3710 ho         1 RCB       0.522000
     49 H2C         -3.2590     2.6100    -0.5900 h1         1 RCB       0.072700
     50 HO2C        -4.5540     3.0260    -2.3500 ho         1 RCB       0.524000
     51 H2D         -7.8090     2.7600    -0.1270 ha         1 RCB       0.143000
     52 H3A          7.9630     1.7080     0.0440 h1         1 RCB       0.050700
     53 HO3A         8.8500     2.1600     2.0880 ho         1 RCB       0.466000
     54 H3B          2.5050    -1.5430     1.5850 h1         1 RCB       0.045700
     55 HO3B         3.0830    -3.4750     0.4350 ho         1 RCB       0.516000
     56 H3C         -2.3910     0.2750    -2.3450 h1         1 RCB       0.050700
     57 HO3C        -1.4820     2.3090    -2.8890 ho         1 RCB       0.518000
     58 H3D         -9.9920     1.7510     0.3330 ha         1 RCB       0.151500
     59 H4A          8.7410    -1.1210     0.8560 h1         1 RCB       0.057700
     60 HO4A        10.4290     0.2130    -0.0110 ho         1 RCB       0.525000
     61 H4B          3.7510    -0.3410    -0.9180 h1         1 RCB       0.082700
     62 H4C         -1.3150     1.1060     0.3790 h1         1 RCB       0.082700
     63 H5A          7.3630    -0.0720    -1.6590 h1         1 RCB       0.057700
     64 H5B          2.2480     0.9730     1.4040 h1         1 RCB       0.053700
     65 H5C         -3.0350    -1.2940    -0.4350 h1         1 RCB       0.058700
     66 H5D         -8.1210    -2.1150     0.5920 ha         1 RCB       0.151500
     67 H6A          8.8910    -2.0160    -1.9820 h1         1 RCB       0.037200
     68 H6AA         8.0000    -2.9110    -0.7500 h1         1 RCB       0.037200
     69 HO6A         7.2290    -3.2870    -2.9310 ho         1 RCB       0.504000
     70 H6B          4.0490     2.3660     0.4080 h1         1 RCB       0.033700
     71 H6BA         3.3210     2.1650    -1.1880 h1         1 RCB       0.033700
     72 HO6B         2.6410     4.0870     0.0380 ho         1 RCB       0.505000
     73 H6C         -1.4750    -1.7250     1.4500 h1         1 RCB       0.037700
     74 H6CA        -2.1430    -0.3370     2.3180 h1         1 RCB       0.037700
     75 HO6C        -3.1970    -2.3540     2.8490 ho         1 RCB       0.511000
     76 H6D         -5.9580    -1.1140     0.1820 ha         1 RCB       0.143000
     77 H1C         -4.7030     0.0230    -1.3520 h2         1 RCB       0.051700
     78 N1D        -10.4820    -0.8590     0.7450 no         1 RCB       0.701200
@<TRIPOS>BOND
     1     1     2 1   
     2     1     8 1   
     3     1    30 1   
     4     1    43 1   
     5     2    26 1   
     6     3     4 1   
     7     3    10 1   
     8     3    32 1   
     9     3    44 1   
    10     4    27 1   
    11     5     6 1   
    12     5    12 1   
    13     5    34 1   
    14     5    77 1   
    15     6     7 1   
    16     7    14 ar  
    17     7    42 ar  
    18     8     9 1   
    19     8    16 1   
    20     8    45 1   
    21     9    46 1   
    22    10    11 1   
    23    10    18 1   
    24    10    47 1   
    25    11    48 1   
    26    12    13 1   
    27    12    20 1   
    28    12    49 1   
    29    13    50 1   
    30    14    22 ar  
    31    14    51 1   
    32    15    78 1   
    33    16    17 1   
    34    16    24 1   
    35    16    52 1   
    36    17    53 1   
    37    18    19 1   
    38    18    26 1   
    39    18    54 1   
    40    19    55 1   
    41    20    21 1   
    42    20    27 1   
    43    20    56 1   
    44    21    57 1   
    45    22    28 ar  
    46    22    58 1   
    47    23    78 1   
    48    24    25 1   
    49    24    29 1   
    50    24    59 1   
    51    25    60 1   
    52    26    31 1   
    53    26    61 1   
    54    27    33 1   
    55    27    62 1   
    56    28    35 ar  
    57    28    78 1   
    58    29    30 1   
    59    29    36 1   
    60    29    63 1   
    61    31    32 1   
    62    31    38 1   
    63    31    64 1   
    64    33    34 1   
    65    33    40 1   
    66    33    65 1   
    67    35    42 ar  
    68    35    66 1   
    69    36    37 1   
    70    36    67 1   
    71    36    68 1   
    72    37    69 1   
    73    38    39 1   
    74    38    70 1   
    75    38    71 1   
    76    39    72 1   
    77    40    41 1   
    78    40    73 1   
    79    40    74 1   
    80    41    75 1   
    81    42    76 1   
@<TRIPOS>SUBSTRUCTURE
     1 RCB         1 TEMP              0 ****  ****    0 ROOT
