@<TRIPOS>MOLECULE
RCB
   78    81     1     0     0
SMALL
No Charge or Current Charge


@<TRIPOS>ATOM
      1 C1A          5.7250     0.1040     0.7500 c6         1 RCB       0.367300
      2 O1A          4.5630    -0.5980     1.2410 os         1 RCB      -0.444000
      3 C1B          0.5680    -1.0430    -0.2160 c6         1 RCB       0.369300
      4 O1B         -0.5520    -1.1390    -1.1200 os         1 RCB      -0.442000
      5 C1C         -4.4590     0.6060    -1.1470 c6         1 RCB       0.363300
      6 O1C         -5.5380     1.5330    -0.9280 os         1 RCB      -0.334100
      7 C1D         -6.6670     1.1730    -0.2170 ca         1 RCB       0.193100
      8 C2A          6.7300     0.3550     1.9210 c6         1 RCB       0.110300
      9 O2A          6.1440     1.1130     3.0080 oh         1 RCB      -0.726000
     10 C2B          1.5240    -2.2580    -0.4250 c6         1 RCB       0.101300
     11 O2B          0.8650    -3.5350    -0.2230 oh         1 RCB      -0.726000
     12 C2C         -3.4110     1.2280    -2.1220 c6         1 RCB       0.107300
     13 O2C         -3.9780     1.5900    -3.4080 oh         1 RCB      -0.716000
     14 C2D         -7.6450     2.1580    -0.0180 ca         1 RCB      -0.176000
     15 O2D        -11.1310     1.1560     2.1120 o          1 RCB      -0.405500
     16 C3A          7.9780     1.0860     1.3530 c6         1 RCB       0.139300
     17 O3A          8.9400     1.3090     2.3970 oh         1 RCB      -0.663000
     18 C3B          2.7290    -2.1100     0.5420 c6         1 RCB       0.174300
     19 O3B          3.6030    -3.2400     0.3740 oh         1 RCB      -0.687000
     20 C3C         -2.2490     0.2160    -2.3120 c6         1 RCB       0.173300
     21 O3C         -1.2870     0.7740    -3.2260 oh         1 RCB      -0.686000
     22 C3D         -8.8260     1.8680     0.6870 ca         1 RCB      -0.010000
     23 O3D        -10.4450    -0.8960     2.3930 o          1 RCB      -0.405500
     24 C4A          8.6030     0.2580     0.1910 c6         1 RCB       0.141300
     25 O4A          9.7320     0.9660    -0.3570 oh         1 RCB      -0.717000
     26 C4B          3.4520    -0.7410     0.3120 c6         1 RCB       0.147300
     27 C4C         -1.6220    -0.1710    -0.9310 c6         1 RCB       0.149300
     28 C4D         -9.0420     0.5710     1.2050 ca         1 RCB      -0.221200
     29 C5A          7.5080    -0.0370    -0.8860 c6         1 RCB       0.178300
     30 O5A          6.3690    -0.6910    -0.2630 os         1 RCB      -0.448000
     31 C5B          2.3950     0.4130     0.4340 c6         1 RCB       0.154300
     32 O5B          1.2940     0.1680    -0.4820 os         1 RCB      -0.445000
     33 C5C         -2.7630    -0.6890     0.0130 c6         1 RCB       0.154300
     34 O5C         -3.8120     0.3120     0.1060 os         1 RCB      -0.458000
     35 C5D         -8.0570    -0.4240     1.0030 ca         1 RCB      -0.010000
     36 C6A          8.0340    -0.9510    -2.0410 c3         1 RCB       0.173600
     37 O6A          7.0260    -1.2670    -3.0250 oh         1 RCB      -0.709000
     38 C6B          2.9540     1.8450     0.1420 c3         1 RCB       0.169600
     39 O6B          1.9360     2.8660     0.1500 oh         1 RCB      -0.706000
     40 C6C         -2.3020    -1.0380     1.4670 c3         1 RCB       0.166600
     41 O6C         -3.3930    -1.3990     2.3380 oh         1 RCB      -0.712000
     42 C6D         -6.8790    -0.1250     0.2960 ca         1 RCB      -0.176000
     43 H1A          5.4290     1.0680     0.3170 h2         1 RCB       0.029700
     44 H1B          0.2170    -1.0340     0.8240 h2         1 RCB       0.029700
     45 H2A          7.0510    -0.6320     2.2900 h1         1 RCB       0.071700
     46 HO2A         5.3150     0.6390     3.2620 ho         1 RCB       0.523000
     47 H2B          1.9040    -2.1970    -1.4560 h1         1 RCB       0.073700
     48 HO2B         0.0600    -3.5270    -0.7960 ho         1 RCB       0.522000
     49 H2C         -3.0050     2.1260    -1.6310 h1         1 RCB       0.072700
     50 HO2C        -4.7700     2.1530    -3.2250 ho         1 RCB       0.524000
     51 H2D         -7.4860     3.1570    -0.4140 ha         1 RCB       0.143000
     52 H3A          7.6450     2.0540     0.9470 h1         1 RCB       0.050700
     53 HO3A         8.3990     1.5330     3.1910 ho         1 RCB       0.466000
     54 H3B          2.3360    -2.1100     1.5700 h1         1 RCB       0.045700
     55 HO3B         2.9840    -3.9920     0.2070 ho         1 RCB       0.516000
     56 H3C         -2.6720    -0.7000    -2.7510 h1         1 RCB       0.050700
     57 HO3C        -1.8390     1.2570    -3.8860 ho         1 RCB       0.518000
     58 H3D         -9.5650     2.6560     0.8240 ha         1 RCB       0.151500
     59 H4A          8.9380    -0.7070     0.6020 h1         1 RCB       0.057700
     60 HO4A        10.1960     1.3470     0.4280 ho         1 RCB       0.525000
     61 H4B          3.8440    -0.7450    -0.7160 h1         1 RCB       0.082700
     62 H4C         -1.2000     0.7460    -0.4930 h1         1 RCB       0.082700
     63 H5A          7.1700     0.9120    -1.3300 h1         1 RCB       0.057700
     64 H5B          1.9960     0.4200     1.4590 h1         1 RCB       0.053700
     65 H5C         -3.1940    -1.6030    -0.4220 h1         1 RCB       0.058700
     66 H5D         -8.1940    -1.4320     1.3920 ha         1 RCB       0.151500
     67 H6A          8.8790    -0.4430    -2.5240 h1         1 RCB       0.037200
     68 H6AA         8.4240    -1.8750    -1.5920 h1         1 RCB       0.037200
     69 HO6A         7.4360    -1.8950    -3.6650 ho         1 RCB       0.504000
     70 H6B          3.7060     2.0800     0.9060 h1         1 RCB       0.033700
     71 H6BA         3.4620     1.8240    -0.8320 h1         1 RCB       0.033700
     72 HO6B         2.3680     3.7080    -0.1240 ho         1 RCB       0.505000
     73 H6C         -1.5950    -1.8760     1.4090 h1         1 RCB       0.037700
     74 H6CA        -1.7620    -0.1720     1.8740 h1         1 RCB       0.037700
     75 HO6C        -3.0180    -1.5120     3.2430 ho         1 RCB       0.511000
     76 H6D         -6.1450    -0.9130     0.1630 ha         1 RCB       0.143000
     77 H1C         -4.8590    -0.3180    -1.5910 h2         1 RCB       0.051700
     78 N1D        -10.2970     0.2540     1.9580 no         1 RCB       0.701200
@<TRIPOS>BOND
     1     1     2 1   
     2     1     8 1   
     3     1    30 1   
     4     1    43 1   
     5     2    26 1   
     6     3     4 1   
     7     3    10 1   
     8     3    32 1   
     9     3    44 1   
    10     4    27 1   
    11     5     6 1   
    12     5    12 1   
    13     5    34 1   
    14     5    77 1   
    15     6     7 1   
    16     7    14 ar  
    17     7    42 ar  
    18     8     9 1   
    19     8    16 1   
    20     8    45 1   
    21     9    46 1   
    22    10    11 1   
    23    10    18 1   
    24    10    47 1   
    25    11    48 1   
    26    12    13 1   
    27    12    20 1   
    28    12    49 1   
    29    13    50 1   
    30    14    22 ar  
    31    14    51 1   
    32    15    78 1   
    33    16    17 1   
    34    16    24 1   
    35    16    52 1   
    36    17    53 1   
    37    18    19 1   
    38    18    26 1   
    39    18    54 1   
    40    19    55 1   
    41    20    21 1   
    42    20    27 1   
    43    20    56 1   
    44    21    57 1   
    45    22    28 ar  
    46    22    58 1   
    47    23    78 1   
    48    24    25 1   
    49    24    29 1   
    50    24    59 1   
    51    25    60 1   
    52    26    31 1   
    53    26    61 1   
    54    27    33 1   
    55    27    62 1   
    56    28    35 ar  
    57    28    78 1   
    58    29    30 1   
    59    29    36 1   
    60    29    63 1   
    61    31    32 1   
    62    31    38 1   
    63    31    64 1   
    64    33    34 1   
    65    33    40 1   
    66    33    65 1   
    67    35    42 ar  
    68    35    66 1   
    69    36    37 1   
    70    36    67 1   
    71    36    68 1   
    72    37    69 1   
    73    38    39 1   
    74    38    70 1   
    75    38    71 1   
    76    39    72 1   
    77    40    41 1   
    78    40    73 1   
    79    40    74 1   
    80    41    75 1   
    81    42    76 1   
@<TRIPOS>SUBSTRUCTURE
     1 RCB         1 TEMP              0 ****  ****    0 ROOT
