@<TRIPOS>MOLECULE
RCC
   83    87     1     0     0
SMALL
No Charge or Current Charge


@<TRIPOS>ATOM
      1 NA           1.2510     1.0230     0.2980 ne         1 RCC      -0.631300
      2 NB          -0.1910     3.4850    -0.4570 ns         1 RCC      -0.415100
      3 OB          -2.0180     4.0980    -1.7160 o          1 RCC      -0.523000
      4 NC          -5.1420    -2.5000    -0.0840 na         1 RCC      -0.054000
      5 ND          -1.2140    -1.0470    -0.9260 na         1 RCC      -0.061000
      6 C1A          1.8740    -0.2090     0.1670 ce         1 RCC       0.135400
      7 C1B          0.7980     4.0460     0.2980 cc         1 RCC       0.083600
      8 C1C         -5.8760    -2.0610     1.0160 cc         1 RCC      -0.305600
      9 C1D         -2.1140    -1.9700    -1.5030 cd         1 RCC      -0.195300
     10 O1D          1.4070    -3.6340     1.8060 o          1 RCC      -0.492000
     11 C2A          3.3470    -0.0750     0.5840 c5         1 RCC      -0.052500
     12 C2B          0.5600     5.4620     0.2760 cc         1 RCC      -0.050200
     13 C2C         -5.6070    -0.7200     1.1530 cd         1 RCC      -0.067300
     14 C2D         -1.4380    -3.1680    -1.6610 cc         1 RCC      -0.050300
     15 O2D          3.6330    -3.4460     1.3250 os         1 RCC      -0.418100
     16 C3A          3.2400     1.2210     1.4750 c5         1 RCC      -0.148000
     17 C3B         -0.5710     5.6770    -0.4970 cd         1 RCC      -0.139200
     18 C3C         -4.6850    -0.3440     0.1340 cd         1 RCC      -0.160300
     19 C3D         -0.1410    -2.9390    -1.1660 cc         1 RCC      -0.276600
     20 C4A          1.9530     1.8860     0.9560 cf         1 RCC       0.493600
     21 C4B         -1.0700     4.3670    -0.9940 c          1 RCC       0.565200
     22 C4C         -4.4180    -1.4500    -0.6410 cc         1 RCC      -0.120300
     23 C4D         -0.0020    -1.6910    -0.7300 cd         1 RCC      -0.047800
     24 CAA          4.3020     0.0740    -0.6340 c3         1 RCC      -0.046400
     25 CAB         -1.1800     6.9750    -0.8260 cf         1 RCC      -0.172000
     26 CAD          1.1170    -3.6890    -1.0420 c          1 RCC       0.632700
     27 CBA          5.8100     0.0770    -0.2740 c3         1 RCC      -0.211400
     28 CBB         -2.4990     7.1580    -1.0640 c2         1 RCC      -0.280000
     29 CBC         -3.1060     1.4420     1.0430 c3         1 RCC      -0.089100
     30 CBD          2.1280    -2.7340    -0.3580 c5         1 RCC      -0.185500
     31 OBD          1.3330    -4.8060    -1.4960 o          1 RCC      -0.525100
     32 CED          4.0030    -3.9330     2.6280 c3         1 RCC       0.153900
     33 CGA          6.6580     0.1940    -1.5520 c          1 RCC       0.719000
     34 CGD          2.3020    -3.4000     1.0040 c          1 RCC       0.611100
     35 CHA          1.3240    -1.3840    -0.2660 cf         1 RCC      -0.039400
     36 CHB          1.7790     3.3290     0.9170 cf         1 RCC      -0.302600
     37 CMA          3.1240     0.9200     2.9890 c3         1 RCC      -0.081100
     38 CMB          1.4240     6.4690     0.9910 c3         1 RCC      -0.047900
     39 CMC         -6.1840     0.1990     2.2070 c3         1 RCC      -0.023800
     40 HNB         -0.2610     2.4920    -0.6370 hn         1 RCC       0.369500
     41 HNC         -5.1350    -3.4550    -0.4320 hn         1 RCC       0.365000
     42 HND         -1.4090    -0.0810    -0.6940 hn         1 RCC       0.365000
     43 H2A          3.6920    -0.9300     1.1700 hc         1 RCC       0.075700
     44 H3A          4.0990     1.8890     1.3480 hc         1 RCC       0.093700
     45 HAA          4.1230    -0.7390    -1.3460 hc         1 RCC       0.051200
     46 HAAA         4.0630     0.9980    -1.1760 hc         1 RCC       0.051200
     47 HAB         -0.5140     7.8410    -0.8130 ha         1 RCC       0.166000
     48 HAC         -3.6140     1.1310    -1.0290 hc         1 RCC       0.041700
     49 HACA        -4.9240     1.7850    -0.0780 hc         1 RCC       0.041700
     50 HBA          5.9750     0.9470     0.3720 hc         1 RCC       0.016200
     51 HBAA         6.0000    -0.8830     0.2240 hc         1 RCC       0.016200
     52 HBB         -2.8980     8.1520    -1.2740 ha         1 RCC       0.173500
     53 HBBA        -3.2090     6.3310    -1.0480 ha         1 RCC       0.173500
     54 HBC         -3.5860     1.4610     2.0280 hc         1 RCC       0.034367
     55 HBCA        -2.2730     0.7310     1.0860 hc         1 RCC       0.034367
     56 HBCB        -2.6980     2.4400     0.8470 hc         1 RCC       0.034367
     57 HBD          3.0730    -2.7190    -0.9040 hc         1 RCC       0.126700
     58 HED          5.0940    -3.9250     2.7420 h1         1 RCC       0.046367
     59 HEDA         3.5740    -3.3030     3.4170 h1         1 RCC       0.046367
     60 HEDB         3.6520    -4.9630     2.7740 h1         1 RCC       0.046367
     61 HHB          2.5120     3.9130     1.4690 ha         1 RCC       0.198000
     62 HHC         -7.2550    -2.2850     2.7270 h4         1 RCC      -0.004800
     63 HMA          4.0290     0.4250     3.3610 hc         1 RCC       0.038033
     64 HMAA         2.9880     1.8430     3.5650 hc         1 RCC       0.038033
     65 HMAB         2.2710     0.2630     3.2010 hc         1 RCC       0.038033
     66 HMB          2.3870     6.5870     0.4800 hc         1 RCC       0.053033
     67 HMBA         0.9430     7.4530     1.0360 hc         1 RCC       0.053033
     68 HMBB         1.6220     6.1540     2.0220 hc         1 RCC       0.053033
     69 HMC         -5.7010     0.0330     3.1760 hc         1 RCC       0.039033
     70 HMCA        -6.0570     1.2560     1.9480 hc         1 RCC       0.039033
     71 HMCB        -7.2600     0.0320     2.3330 hc         1 RCC       0.039033
     72 HMD         -1.6790    -4.5360    -3.3050 hc         1 RCC       0.039367
     73 HMDA        -1.4400    -5.3250    -1.7340 hc         1 RCC       0.039367
     74 HMDB        -2.9990    -4.5860    -2.1210 hc         1 RCC       0.039367
     75 CHD         -3.5360    -1.6090    -1.8550 c3         1 RCC       0.051200
     76 O1A          6.9380     1.3120    -1.9570 o          1 RCC      -0.735500
     77 O2A          6.9700    -0.8340    -2.1340 o          1 RCC      -0.735500
     78 CAC         -4.1130     1.0470    -0.0570 c3         1 RCC      -0.003100
     79 HHD         -3.5470    -0.6870    -2.4490 hc         1 RCC       0.067200
     80 OC          -6.9900    -4.0410     1.7370 o          1 RCC      -0.559100
     81 HHDA        -3.9620    -2.3730    -2.5170 hc         1 RCC       0.067200
     82 CMD         -1.9150    -4.4740    -2.2370 c3         1 RCC      -0.019800
     83 CHC         -6.7740    -2.8440     1.8950 c          1 RCC       0.608500
@<TRIPOS>BOND
     1     1     6 1   
     2     1    20 2   
     3     2     7 1   
     4     2    21 1   
     5     2    40 1   
     6     3    21 2   
     7     4     8 1   
     8     4    22 1   
     9     4    41 1   
    10     5     9 1   
    11     5    23 1   
    12     5    42 1   
    13     6    11 1   
    14     6    35 2   
    15     7    12 1   
    16     7    36 2   
    17     8    13 2   
    18     8    83 1   
    19     9    14 2   
    20     9    75 1   
    21    10    34 2   
    22    11    16 1   
    23    11    24 1   
    24    11    43 1   
    25    12    17 2   
    26    12    38 1   
    27    13    18 1   
    28    13    39 1   
    29    14    19 1   
    30    14    82 1   
    31    15    32 1   
    32    15    34 1   
    33    16    20 1   
    34    16    37 1   
    35    16    44 1   
    36    17    21 1   
    37    17    25 1   
    38    18    22 2   
    39    18    78 1   
    40    19    23 2   
    41    19    26 1   
    42    20    36 1   
    43    22    75 1   
    44    23    35 1   
    45    24    27 1   
    46    24    45 1   
    47    24    46 1   
    48    25    28 2   
    49    25    47 1   
    50    26    30 1   
    51    26    31 2   
    52    27    33 1   
    53    27    50 1   
    54    27    51 1   
    55    28    52 1   
    56    28    53 1   
    57    29    54 1   
    58    29    55 1   
    59    29    56 1   
    60    29    78 1   
    61    30    34 1   
    62    30    35 1   
    63    30    57 1   
    64    32    58 1   
    65    32    59 1   
    66    32    60 1   
    67    33    76 1   
    68    33    77 1   
    69    36    61 1   
    70    37    63 1   
    71    37    64 1   
    72    37    65 1   
    73    38    66 1   
    74    38    67 1   
    75    38    68 1   
    76    39    69 1   
    77    39    70 1   
    78    39    71 1   
    79    48    78 1   
    80    49    78 1   
    81    62    83 1   
    82    72    82 1   
    83    73    82 1   
    84    74    82 1   
    85    75    79 1   
    86    75    81 1   
    87    80    83 2   
@<TRIPOS>SUBSTRUCTURE
     1 RCC         1 TEMP              0 ****  ****    0 ROOT
