@<TRIPOS>MOLECULE
RCC
   83    87     1     0     0
SMALL
bcc


@<TRIPOS>ATOM
      1 NA           1.2530     0.8980     0.0100 ne         1 RCC      -0.631300
      2 NB          -0.2510     3.0880    -0.9170 ns         1 RCC      -0.482100
      3 OB          -1.8860     3.6600    -2.4190 o          1 RCC      -0.598500
      4 NC          -4.8210    -1.9620    -0.0140 na         1 RCC      -0.105100
      5 ND          -0.9950    -0.8110    -1.0710 na         1 RCC      -0.112100
      6 C1A          1.9780    -0.2820     0.0390 ce         1 RCC       0.135400
      7 C1B          0.4210     3.6900     0.1140 cc         1 RCC       0.083600
      8 C1C         -5.4250    -1.6370     1.1720 cc         1 RCC      -0.254900
      9 C1D         -2.0230    -1.5840    -1.5820 cd         1 RCC      -0.144600
     10 O1D          1.8690    -3.2110     1.7970 o          1 RCC      -0.541000
     11 C2A          3.3320    -0.0740     0.6690 c5         1 RCC      -0.052500
     12 C2B         -0.1300     5.0380     0.2510 cc         1 RCC      -0.050200
     13 C2C         -5.1130    -0.3110     1.4520 cd         1 RCC      -0.067300
     14 C2D         -1.5710    -2.8680    -1.7700 cc         1 RCC      -0.050300
     15 O2D          3.5310    -4.1560     0.6420 os         1 RCC      -0.394900
     16 C3A          3.1360     1.2860     1.3690 c5         1 RCC      -0.148000
     17 C3B         -1.0960     5.1970    -0.6860 cd         1 RCC      -0.139200
     18 C3C         -4.2950     0.1530     0.3980 cd         1 RCC      -0.160300
     19 C3D         -0.2090    -2.8520    -1.3470 cc         1 RCC      -0.276600
     20 C4A          1.8840     1.7940     0.7010 cf         1 RCC       0.493600
     21 C4B         -1.1750     3.9340    -1.4770 c          1 RCC       0.707700
     22 C4C         -4.1460    -0.9020    -0.4950 cc         1 RCC      -0.069600
     23 C4D          0.0980    -1.5710    -0.9290 cd         1 RCC       0.002900
     24 CAA          4.4600    -0.0590    -0.3690 c3         1 RCC      -0.046400
     25 CAB         -1.9130     6.3720    -0.9030 cf         1 RCC      -0.122000
     26 CAD          0.9390    -3.6950    -1.1650 c          1 RCC       0.632700
     27 CBA          5.8350     0.0050     0.2760 c3         1 RCC      -0.211400
     28 CBB         -2.8830     6.5190    -1.8090 c2         1 RCC      -0.180000
     29 CBC         -2.5860     1.7790     1.3100 c3         1 RCC      -0.089100
     30 CBD          2.0580    -2.7840    -0.5580 c5         1 RCC      -0.185500
     31 OBD          1.0880    -4.8770    -1.3870 o          1 RCC      -0.525100
     32 CED          3.9870    -4.8450     1.8100 c3         1 RCC       0.130700
     33 CGA          7.0270     0.0130    -0.6980 c          1 RCC       0.929600
     34 CGD          2.4660    -3.3850     0.7660 c          1 RCC       0.660100
     35 CHA          1.4320    -1.4160    -0.4340 cf         1 RCC      -0.039400
     36 CHB          1.4120     3.1410     0.8520 cf         1 RCC      -0.252600
     37 CMA          2.9400     1.1690     2.8810 c3         1 RCC      -0.081100
     38 CMB          0.3410     5.9900     1.2880 c3         1 RCC      -0.047900
     39 CMC         -5.5550     0.4840     2.6340 c3         1 RCC      -0.023800
     40 HNB         -0.0090     2.1700    -1.2580 hn         1 RCC       0.369500
     41 HNC         -4.8910    -2.8650    -0.4570 hn         1 RCC       0.314700
     42 HND         -1.0530     0.1640    -0.8310 hn         1 RCC       0.314700
     43 H2A          3.5380    -0.8570     1.4050 hc         1 RCC       0.075700
     44 H3A          3.9690     1.9690     1.1760 hc         1 RCC       0.093700
     45 HAA          4.3950    -0.9560    -0.9910 hc         1 RCC       0.051200
     46 HAAA         4.3140     0.7870    -1.0470 hc         1 RCC       0.051200
     47 HAB         -1.6990     7.2100    -0.2490 ha         1 RCC       0.116000
     48 HAC         -3.3190     1.6900    -0.7200 hc         1 RCC       0.041700
     49 HACA        -4.4810     2.2720     0.4300 hc         1 RCC       0.041700
     50 HBA          5.9150     0.8910     0.9170 hc         1 RCC       0.016200
     51 HBAA         5.9540    -0.8450     0.9590 hc         1 RCC       0.016200
     52 HBB         -3.4240     7.4530    -1.8710 ha         1 RCC       0.123500
     53 HBBA        -3.1670     5.7420    -2.5020 ha         1 RCC       0.123500
     54 HBC         -2.9460     1.6490     2.3300 hc         1 RCC       0.034367
     55 HBCA        -1.7440     1.0980     1.1780 hc         1 RCC       0.034367
     56 HBCB        -2.2070     2.7970     1.2260 hc         1 RCC       0.034367
     57 HBD          2.9050    -2.7860    -1.2490 hc         1 RCC       0.126700
     58 HED          4.8470    -5.4270     1.4940 h1         1 RCC       0.046367
     59 HEDA         4.2890    -4.1440     2.5880 h1         1 RCC       0.046367
     60 HEDB         3.2200    -5.5110     2.2020 h1         1 RCC       0.046367
     61 HHB          1.8980     3.7680     1.5880 ha         1 RCC       0.148000
     62 HHC         -6.6600    -2.1740     2.8340 h4         1 RCC      -0.004800
     63 HMA          3.8550     0.8090     3.3530 hc         1 RCC       0.038033
     64 HMAA         2.6920     2.1300     3.3330 hc         1 RCC       0.038033
     65 HMAB         2.1400     0.4670     3.1200 hc         1 RCC       0.038033
     66 HMB          1.3900     6.2490     1.1290 hc         1 RCC       0.053033
     67 HMBA        -0.2340     6.9130     1.2880 hc         1 RCC       0.053033
     68 HMBB         0.2650     5.5510     2.2840 hc         1 RCC       0.053033
     69 HMC         -4.7680     0.5570     3.3860 hc         1 RCC       0.039033
     70 HMCA        -5.8140     1.5030     2.3440 hc         1 RCC       0.039033
     71 HMCB        -6.4290     0.0530     3.1210 hc         1 RCC       0.039033
     72 HMD         -1.8450    -4.4910    -3.1420 hc         1 RCC       0.039367
     73 HMDA        -2.4350    -4.8140    -1.5210 hc         1 RCC       0.039367
     74 HMDB        -3.3450    -3.7590    -2.5940 hc         1 RCC       0.039367
     75 CHD         -3.3790    -0.9910    -1.7760 c3         1 RCC       0.051200
     76 O1A          6.7800    -0.0240    -1.9190 o          1 RCC      -0.840800
     77 O2A          8.1580     0.0550    -0.1710 o          1 RCC      -0.840800
     78 CAC         -3.6980     1.5210     0.2920 c3         1 RCC      -0.003100
     79 HHD         -3.2950     0.0030    -2.2230 hc         1 RCC       0.067200
     80 OC          -6.4280    -3.7260     1.5600 o          1 RCC      -0.559100
     81 HHDA        -3.9340    -1.5930    -2.4980 hc         1 RCC       0.067200
     82 CMD         -2.3400    -4.0380    -2.2820 c3         1 RCC      -0.019800
     83 CHC         -6.2240    -2.5730     1.9030 c          1 RCC       0.608500
@<TRIPOS>BOND
     1     1     6 1   
     2     1    20 2   
     3     2     7 1   
     4     2    21 1   
     5     2    40 1   
     6     3    21 2   
     7     4     8 1   
     8     4    22 1   
     9     4    41 1   
    10     5     9 1   
    11     5    23 1   
    12     5    42 1   
    13     6    11 1   
    14     6    35 2   
    15     7    12 1   
    16     7    36 2   
    17     8    13 2   
    18     8    83 1   
    19     9    14 2   
    20     9    75 1   
    21    10    34 2   
    22    11    16 1   
    23    11    24 1   
    24    11    43 1   
    25    12    17 2   
    26    12    38 1   
    27    13    18 1   
    28    13    39 1   
    29    14    19 1   
    30    14    82 1   
    31    15    32 1   
    32    15    34 1   
    33    16    20 1   
    34    16    37 1   
    35    16    44 1   
    36    17    21 1   
    37    17    25 1   
    38    18    22 2   
    39    18    78 1   
    40    19    23 2   
    41    19    26 1   
    42    20    36 1   
    43    22    75 1   
    44    23    35 1   
    45    24    27 1   
    46    24    45 1   
    47    24    46 1   
    48    25    28 2   
    49    25    47 1   
    50    26    30 1   
    51    26    31 2   
    52    27    33 1   
    53    27    50 1   
    54    27    51 1   
    55    28    52 1   
    56    28    53 1   
    57    29    54 1   
    58    29    55 1   
    59    29    56 1   
    60    29    78 1   
    61    30    34 1   
    62    30    35 1   
    63    30    57 1   
    64    32    58 1   
    65    32    59 1   
    66    32    60 1   
    67    33    76 1   
    68    33    77 1   
    69    36    61 1   
    70    37    63 1   
    71    37    64 1   
    72    37    65 1   
    73    38    66 1   
    74    38    67 1   
    75    38    68 1   
    76    39    69 1   
    77    39    70 1   
    78    39    71 1   
    79    48    78 1   
    80    49    78 1   
    81    62    83 1   
    82    72    82 1   
    83    73    82 1   
    84    74    82 1   
    85    75    79 1   
    86    75    81 1   
    87    80    83 2   
@<TRIPOS>SUBSTRUCTURE
     1 RCC         1 TEMP              0 ****  ****    0 ROOT
