@<TRIPOS>MOLECULE
RCF
   33    34     1     0     0
SMALL
abcg2


@<TRIPOS>ATOM
      1 N01         -6.7040    -2.7120     0.4740 n1         1 RCF      -0.478000
      2 C02         -5.8140    -1.9890     0.3560 cg         1 RCF       0.341000
      3 C03         -4.7130    -1.0970     0.2130 ca         1 RCF      -0.056000
      4 C04         -4.9480     0.2760     0.0960 ca         1 RCF      -0.091000
      5 C05         -3.8750     1.1170    -0.0400 ca         1 RCF       0.122000
      6 F06         -4.0720     2.4330    -0.1550 f          1 RCF      -0.166000
      7 C07         -2.5600     0.6440    -0.0630 ca         1 RCF       0.142100
      8 C08         -2.3410    -0.7230     0.0520 ca         1 RCF      -0.173000
      9 C09         -3.4130    -1.5900     0.1900 ca         1 RCF      -0.046000
     10 O10         -1.6000     1.5750    -0.1940 os         1 RCF      -0.222200
     11 C11         -0.2830     1.1630    -0.2960 ca         1 RCF      -0.015900
     12 C12          0.2530     0.8870    -1.5450 ca         1 RCF      -0.073000
     13 C13          1.5800     0.5170    -1.6500 ca         1 RCF      -0.189000
     14 C14          2.3890     0.4130    -0.5120 ca         1 RCF       0.197100
     15 C15          1.8330     0.6970     0.7360 ca         1 RCF      -0.189000
     16 C16          0.4980     1.0680     0.8380 ca         1 RCF      -0.073000
     17 O17          3.6550     0.0320    -0.7310 os         1 RCF      -0.290100
     18 C18          4.5700    -0.1090     0.3520 c3         1 RCF       0.012300
     19 C19          5.7210    -1.0380    -0.0980 c          1 RCF       0.731000
     20 O20          6.5340    -1.3100     0.8060 o          1 RCF      -0.704500
     21 O21          5.7410    -1.4190    -1.2780 o          1 RCF      -0.704500
     22 C22          5.1030     1.2480     0.7920 c3         1 RCF      -0.099100
     23 H1          -5.9530     0.6770     0.1080 ha         1 RCF       0.135000
     24 H2          -1.3370    -1.1220     0.0360 ha         1 RCF       0.149000
     25 H3          -3.2320    -2.6520     0.2800 ha         1 RCF       0.127000
     26 H4          -0.3600     0.9650    -2.4340 ha         1 RCF       0.113500
     27 H5           2.0040     0.3000    -2.6220 ha         1 RCF       0.132000
     28 H6           2.4160     0.6370     1.6430 ha         1 RCF       0.132000
     29 H7           0.0790     1.2890     1.8120 ha         1 RCF       0.113500
     30 H8           4.0690    -0.6000     1.1960 h1         1 RCF       0.030700
     31 H10          4.3080     1.9150     1.1280 hc         1 RCF       0.030367
     32 H11          5.7990     1.1210     1.6190 hc         1 RCF       0.030367
     33 H12          5.6310     1.7410    -0.0250 hc         1 RCF       0.030367
@<TRIPOS>BOND
     1     1     2 3   
     2     2     3 1   
     3     3     4 ar  
     4     3     9 ar  
     5     4     5 ar  
     6     4    23 1   
     7     5     6 1   
     8     5     7 ar  
     9     7     8 ar  
    10     7    10 1   
    11     8     9 ar  
    12     8    24 1   
    13     9    25 1   
    14    10    11 1   
    15    11    12 ar  
    16    11    16 ar  
    17    12    13 ar  
    18    12    26 1   
    19    13    14 ar  
    20    13    27 1   
    21    14    15 ar  
    22    14    17 1   
    23    15    16 ar  
    24    15    28 1   
    25    16    29 1   
    26    17    18 1   
    27    18    19 1   
    28    18    22 1   
    29    18    30 1   
    30    19    20 1   
    31    19    21 1   
    32    22    31 1   
    33    22    32 1   
    34    22    33 1   
@<TRIPOS>SUBSTRUCTURE
     1 RCF         1 TEMP              0 ****  ****    0 ROOT
