@<TRIPOS>MOLECULE
RCF
   33    34     1     0     0
SMALL
No Charge or Current Charge


@<TRIPOS>ATOM
      1 N01         -6.5720    -2.3240     1.8770 n1         1 RCF      -0.478000
      2 C02         -5.7170    -1.7180     1.3620 cg         1 RCF       0.341000
      3 C03         -4.6710    -0.9610     0.7300 ca         1 RCF      -0.056000
      4 C04         -4.7670     0.4430     0.6400 ca         1 RCF      -0.091000
      5 C05         -3.7430     1.1790     0.0200 ca         1 RCF       0.122000
      6 F06         -3.8510     2.5260    -0.0600 f          1 RCF      -0.166000
      7 C07         -2.6110     0.5230    -0.5060 ca         1 RCF       0.142100
      8 C08         -2.5220    -0.8810    -0.4270 ca         1 RCF      -0.173000
      9 C09         -3.5470    -1.6200     0.1930 ca         1 RCF      -0.046000
     10 O10         -1.6200     1.2590    -1.1230 os         1 RCF      -0.222200
     11 C11         -0.2800     0.9660    -0.9970 ca         1 RCF      -0.015900
     12 C12          0.5620     1.1440    -2.1060 ca         1 RCF      -0.073000
     13 C13          1.9360     0.8640    -1.9970 ca         1 RCF      -0.189000
     14 C14          2.4800     0.4180    -0.7810 ca         1 RCF       0.197100
     15 C15          1.6320     0.2450     0.3360 ca         1 RCF      -0.189000
     16 C16          0.2570     0.5250     0.2290 ca         1 RCF      -0.073000
     17 O17          3.8370     0.1540    -0.7470 os         1 RCF      -0.290100
     18 C18          4.5750    -0.1290     0.4730 c3         1 RCF       0.012300
     19 C19          5.9710    -0.7730     0.1770 c          1 RCF       0.731000
     20 O20          6.6260    -1.1800     1.1290 o          1 RCF      -0.704500
     21 O21          6.3460    -0.8940    -0.9840 o          1 RCF      -0.704500
     22 C22          4.7220     1.2000     1.2580 c3         1 RCF      -0.099100
     23 H1          -5.6310     0.9640     1.0460 ha         1 RCF       0.135000
     24 H2          -1.6640    -1.3990    -0.8480 ha         1 RCF       0.149000
     25 H3          -3.4670    -2.7050     0.2520 ha         1 RCF       0.127000
     26 H4           0.1510     1.4940    -3.0500 ha         1 RCF       0.113500
     27 H5           2.5850     0.9970    -2.8590 ha         1 RCF       0.132000
     28 H6           2.0180    -0.1020     1.2890 ha         1 RCF       0.132000
     29 H7          -0.3840     0.4010     1.0990 ha         1 RCF       0.113500
     30 H8           4.0320    -0.8590     1.0860 h1         1 RCF       0.030700
     31 H10          3.7470     1.6430     1.4890 hc         1 RCF       0.030367
     32 H11          5.2420     1.0290     2.2080 hc         1 RCF       0.030367
     33 H12          5.3020     1.9270     0.6780 hc         1 RCF       0.030367
@<TRIPOS>BOND
     1     1     2 3   
     2     2     3 1   
     3     3     4 ar  
     4     3     9 ar  
     5     4     5 ar  
     6     4    23 1   
     7     5     6 1   
     8     5     7 ar  
     9     7     8 ar  
    10     7    10 1   
    11     8     9 ar  
    12     8    24 1   
    13     9    25 1   
    14    10    11 1   
    15    11    12 ar  
    16    11    16 ar  
    17    12    13 ar  
    18    12    26 1   
    19    13    14 ar  
    20    13    27 1   
    21    14    15 ar  
    22    14    17 1   
    23    15    16 ar  
    24    15    28 1   
    25    16    29 1   
    26    17    18 1   
    27    18    19 1   
    28    18    22 1   
    29    18    30 1   
    30    19    20 1   
    31    19    21 1   
    32    22    31 1   
    33    22    32 1   
    34    22    33 1   
@<TRIPOS>SUBSTRUCTURE
     1 RCF         1 TEMP              0 ****  ****    0 ROOT
