@<TRIPOS>MOLECULE
RCG
   68    72     1     0     0
SMALL
abcg2


@<TRIPOS>ATOM
      1 C1          37.1980     5.8960    43.5510 c3         1 RCG       0.085800
      2 C10         43.7660     8.1360    40.8010 ca         1 RCG       0.258100
      3 C11         44.5430     9.2870    40.9060 ca         1 RCG      -0.276000
      4 C12         45.2770     9.5390    42.0760 ca         1 RCG       0.213100
      5 C13         45.2600     8.6580    43.1540 ca         1 RCG      -0.261000
      6 C14         44.4710     7.5220    43.0040 ca         1 RCG       0.205100
      7 C15         46.7810    11.0150    43.2100 c3         1 RCG       0.148900
      8 C16         43.0330     8.7220    38.6030 c3         1 RCG       0.147900
      9 C17         44.0040     4.2040    43.7630 ca         1 RCG      -0.096300
     10 C18         43.3780     3.0430    43.3160 ca         1 RCG      -0.055000
     11 C19         43.8960     1.7780    43.5740 ca         1 RCG      -0.168000
     12 C2          38.5510     4.3930    42.1800 c3         1 RCG       0.085800
     13 C20         45.0740     1.6510    44.3070 ca         1 RCG       0.142100
     14 C21         45.7140     2.8030    44.7670 ca         1 RCG      -0.168000
     15 C22         45.1840     4.0540    44.4980 ca         1 RCG      -0.055000
     16 C23         45.0430    -0.7360    44.1600 c3         1 RCG       0.149900
     17 C24         42.1000     5.2170    45.7440 ca         1 RCG      -0.055300
     18 C25         41.5310     3.9710    46.0050 ca         1 RCG      -0.094000
     19 C26         41.6000     3.4090    47.2760 ca         1 RCG      -0.110500
     20 C27         42.2420     4.0840    48.3090 ca         1 RCG      -0.108000
     21 C28         42.8080     5.3310    48.0610 ca         1 RCG      -0.110500
     22 C29         42.7320     5.8910    46.7900 ca         1 RCG      -0.094000
     23 C3          39.6130     5.9150    43.8580 c          1 RCG       0.610100
     24 C4          40.9870     5.4330    43.4090 c5         1 RCG      -0.170700
     25 C5          42.1030     5.8340    44.3710 c5         1 RCG      -0.006400
     26 C6          43.4040     5.5750    43.5530 c5         1 RCG       0.197300
     27 C7          42.9910     5.9520    42.0560 c5         1 RCG       0.246300
     28 C8          41.4300     6.0490    42.0580 c5         1 RCG       0.159300
     29 C9          43.7170     7.2480    41.8820 ca         1 RCG      -0.216300
     30 N1          38.5310     5.4070    43.2230 n          1 RCG      -0.427800
     31 O1          39.5110     6.7620    44.7490 o          1 RCG      -0.580100
     32 O2          41.0260     7.4100    41.9540 oh         1 RCG      -0.627000
     33 O3          44.3850     6.5640    43.9630 os         1 RCG      -0.325100
     34 O5          43.0510     7.8090    39.7000 os         1 RCG      -0.333100
     35 O6          43.4590     5.0480    41.0610 oh         1 RCG      -0.621000
     36 O7          45.6640     0.4650    44.6180 os         1 RCG      -0.348100
     37 H1          37.2760     6.7120    44.2610 h1         1 RCG       0.042367
     38 H2          36.7030     6.2460    42.6430 h1         1 RCG       0.042367
     39 H3          36.5990     5.0910    43.9840 h1         1 RCG       0.042367
     40 H4          44.6070    10.0040    40.1020 ha         1 RCG       0.132000
     41 H5          45.8240     8.8210    44.0590 ha         1 RCG       0.135000
     42 H6          47.2700    11.9580    42.9810 h1         1 RCG       0.043700
     43 H7          46.1510    11.1330    44.0940 h1         1 RCG       0.043700
     44 H8          47.5340    10.2460    43.3980 h1         1 RCG       0.043700
     45 H9          42.3910     8.2690    37.8520 h1         1 RCG       0.043033
     46 H10         42.6220     9.6870    38.9060 h1         1 RCG       0.043033
     47 H11         44.0350     8.8640    38.1930 h1         1 RCG       0.043033
     48 H12         42.4520     3.0840    42.7600 ha         1 RCG       0.112000
     49 H13         43.3720     0.9110    43.2030 ha         1 RCG       0.121000
     50 H14         39.5290     3.9370    42.0770 h1         1 RCG       0.042367
     51 H15         37.8340     3.6090    42.4300 h1         1 RCG       0.042367
     52 H16         38.2640     4.8290    41.2200 h1         1 RCG       0.042367
     53 H17         46.6270     2.7040    45.3400 ha         1 RCG       0.121000
     54 H18         45.6940     4.9300    44.8700 ha         1 RCG       0.112000
     55 H19         45.6730    -1.5490    44.5110 h1         1 RCG       0.041367
     56 H20         44.0390    -0.8420    44.5770 h1         1 RCG       0.041367
     57 H21         44.9880    -0.7570    43.0690 h1         1 RCG       0.041367
     58 H22         41.0310     3.4240    45.2180 ha         1 RCG       0.109500
     59 H23         41.1500     2.4400    47.4580 ha         1 RCG       0.109000
     60 H24         42.2960     3.6460    49.2970 ha         1 RCG       0.110000
     61 H25         43.3060     5.8700    48.8580 ha         1 RCG       0.109000
     62 H26         43.1730     6.8620    46.6030 ha         1 RCG       0.109500
     63 H27         40.9670     4.3520    43.2970 hc         1 RCG       0.063700
     64 H28         42.0480     6.9170    44.4890 hc         1 RCG       0.102700
     65 H29         41.0390     5.4880    41.2100 h1         1 RCG       0.041700
     66 H30         40.1110     7.4300    41.6470 ho         1 RCG       0.444000
     67 H31         42.8900     4.2700    41.0210 ho         1 RCG       0.436000
     68 O4          45.9960    10.6930    42.0620 os         1 RCG      -0.350100
@<TRIPOS>BOND
     1     1    30 1   
     2     1    37 1   
     3     1    38 1   
     4     1    39 1   
     5     2     3 ar  
     6     2    29 ar  
     7     2    34 1   
     8     3     4 ar  
     9     3    40 1   
    10     4     5 ar  
    11     4    68 1   
    12     5     6 ar  
    13     5    41 1   
    14     6    29 ar  
    15     6    33 1   
    16     7    42 1   
    17     7    43 1   
    18     7    44 1   
    19     7    68 1   
    20     8    34 1   
    21     8    45 1   
    22     8    46 1   
    23     8    47 1   
    24     9    10 ar  
    25     9    15 ar  
    26     9    26 1   
    27    10    11 ar  
    28    10    48 1   
    29    11    13 ar  
    30    11    49 1   
    31    12    30 1   
    32    12    50 1   
    33    12    51 1   
    34    12    52 1   
    35    13    14 ar  
    36    13    36 1   
    37    14    15 ar  
    38    14    53 1   
    39    15    54 1   
    40    16    36 1   
    41    16    55 1   
    42    16    56 1   
    43    16    57 1   
    44    17    18 ar  
    45    17    22 ar  
    46    17    25 1   
    47    18    19 ar  
    48    18    58 1   
    49    19    20 ar  
    50    19    59 1   
    51    20    21 ar  
    52    20    60 1   
    53    21    22 ar  
    54    21    61 1   
    55    22    62 1   
    56    23    24 1   
    57    23    30 1   
    58    23    31 2   
    59    24    25 1   
    60    24    28 1   
    61    24    63 1   
    62    25    26 1   
    63    25    64 1   
    64    26    27 1   
    65    26    33 1   
    66    27    28 1   
    67    27    29 1   
    68    27    35 1   
    69    28    32 1   
    70    28    65 1   
    71    32    66 1   
    72    35    67 1   
@<TRIPOS>SUBSTRUCTURE
     1 RCG         1 TEMP              0 ****  ****    0 ROOT
