@<TRIPOS>MOLECULE
RCG
   68    72     1     0     0
SMALL
No Charge or Current Charge


@<TRIPOS>ATOM
      1 C1          37.3070     5.4220    44.0210 c3         1 RCG       0.085800
      2 C10         43.6740     8.2570    40.8350 ca         1 RCG       0.258100
      3 C11         44.3770     9.4730    40.9820 ca         1 RCG      -0.276000
      4 C12         45.1670     9.7080    42.1190 ca         1 RCG       0.213100
      5 C13         45.2670     8.7220    43.1200 ca         1 RCG      -0.261000
      6 C14         44.5520     7.5350    42.9610 ca         1 RCG       0.205100
      7 C15         46.6690    11.2540    43.3180 c3         1 RCG       0.148900
      8 C16         42.8270     8.8770    38.5990 c3         1 RCG       0.147900
      9 C17         43.9160     4.1020    43.7260 ca         1 RCG      -0.096300
     10 C18         43.3800     3.0090    43.0010 ca         1 RCG      -0.055000
     11 C19         43.7280     1.6830    43.3140 ca         1 RCG      -0.168000
     12 C2          38.6940     4.0020    42.4780 c3         1 RCG       0.085800
     13 C20         44.6260     1.4160    44.3660 ca         1 RCG       0.142100
     14 C21         45.1640     2.4850    45.0920 ca         1 RCG      -0.168000
     15 C22         44.8160     3.8090    44.7780 ca         1 RCG      -0.055000
     16 C23         44.4980    -1.0270    44.0410 c3         1 RCG       0.149900
     17 C24         42.2330     5.4190    45.6350 ca         1 RCG      -0.055300
     18 C25         41.5750     4.2170    46.0020 ca         1 RCG      -0.094000
     19 C26         41.6320     3.7410    47.3230 ca         1 RCG      -0.110500
     20 C27         42.3390     4.4530    48.3020 ca         1 RCG      -0.108000
     21 C28         42.9910     5.6460    47.9580 ca         1 RCG      -0.110500
     22 C29         42.9360     6.1220    46.6380 ca         1 RCG      -0.094000
     23 C3          39.7180     5.9990    43.6960 c          1 RCG       0.610100
     24 C4          41.1150     5.4220    43.2960 c5         1 RCG      -0.170700
     25 C5          42.2350     6.0130    44.2090 c5         1 RCG      -0.006400
     26 C6          43.5430     5.5890    43.4440 c5         1 RCG       0.197300
     27 C7          43.1670     5.9090    41.9210 c5         1 RCG       0.246300
     28 C8          41.5640     5.9100    41.8720 c5         1 RCG       0.159300
     29 C9          43.7560     7.3000    41.8610 ca         1 RCG      -0.216300
     30 N1          38.6470     5.0860    43.4910 n          1 RCG      -0.427800
     31 O1          39.5240     7.0990    44.2030 o          1 RCG      -0.580100
     32 O2          40.9770     7.1600    41.5040 oh         1 RCG      -0.627000
     33 O3          44.6140     6.5040    43.8530 os         1 RCG      -0.325100
     34 O5          42.9080     7.9790    39.7190 os         1 RCG      -0.333100
     35 O6          43.8010     5.1020    40.9240 oh         1 RCG      -0.621000
     36 O7          45.0020     0.1360    44.7210 os         1 RCG      -0.348100
     37 H1          37.3930     5.8020    45.0480 h1         1 RCG       0.042367
     38 H2          36.8410     6.1900    43.3900 h1         1 RCG       0.042367
     39 H3          36.6660     4.5300    44.0350 h1         1 RCG       0.042367
     40 H4          44.3300    10.2450    40.2220 ha         1 RCG       0.132000
     41 H5          45.8810     8.8550    44.0050 ha         1 RCG       0.135000
     42 H6          47.0980    12.2540    43.1820 h1         1 RCG       0.043700
     43 H7          46.0900    11.2570    44.2500 h1         1 RCG       0.043700
     44 H8          47.4970    10.5400    43.4190 h1         1 RCG       0.043700
     45 H9          42.1830     8.4540    37.8190 h1         1 RCG       0.043033
     46 H10         42.4030     9.8430    38.9030 h1         1 RCG       0.043033
     47 H11         43.8200     9.0480    38.1650 h1         1 RCG       0.043033
     48 H12         42.6810     3.1670    42.1840 ha         1 RCG       0.112000
     49 H13         43.2900     0.8800    42.7300 ha         1 RCG       0.121000
     50 H14         39.2360     3.1370    42.8800 h1         1 RCG       0.042367
     51 H15         37.6780     3.6810    42.2130 h1         1 RCG       0.042367
     52 H16         39.1870     4.3560    41.5650 h1         1 RCG       0.042367
     53 H17         45.8540     2.2880    45.9080 ha         1 RCG       0.121000
     54 H18         45.2430     4.6120    45.3730 ha         1 RCG       0.112000
     55 H19         44.9230    -1.9380    44.4810 h1         1 RCG       0.041367
     56 H20         43.4060    -1.0860    44.1250 h1         1 RCG       0.041367
     57 H21         44.7690    -1.0050    42.9780 h1         1 RCG       0.041367
     58 H22         41.0220     3.6270    45.2790 ha         1 RCG       0.109500
     59 H23         41.1260     2.8150    47.5860 ha         1 RCG       0.109000
     60 H24         42.3820     4.0820    49.3240 ha         1 RCG       0.110000
     61 H25         43.5410     6.2020    48.7140 ha         1 RCG       0.109000
     62 H26         43.4500     7.0470    46.3890 ha         1 RCG       0.109500
     63 H27         41.0910     4.3340    43.2710 hc         1 RCG       0.063700
     64 H28         42.1530     7.1070    44.2510 hc         1 RCG       0.102700
     65 H29         41.2420     5.1640    41.1330 h1         1 RCG       0.041700
     66 H30         41.5310     7.5110    40.7680 ho         1 RCG       0.444000
     67 H31         44.7650     5.1730    41.0870 ho         1 RCG       0.436000
     68 O4          45.8330    10.9120    42.1980 os         1 RCG      -0.350100
@<TRIPOS>BOND
     1     1    30 1   
     2     1    37 1   
     3     1    38 1   
     4     1    39 1   
     5     2     3 ar  
     6     2    29 ar  
     7     2    34 1   
     8     3     4 ar  
     9     3    40 1   
    10     4     5 ar  
    11     4    68 1   
    12     5     6 ar  
    13     5    41 1   
    14     6    29 ar  
    15     6    33 1   
    16     7    42 1   
    17     7    43 1   
    18     7    44 1   
    19     7    68 1   
    20     8    34 1   
    21     8    45 1   
    22     8    46 1   
    23     8    47 1   
    24     9    10 ar  
    25     9    15 ar  
    26     9    26 1   
    27    10    11 ar  
    28    10    48 1   
    29    11    13 ar  
    30    11    49 1   
    31    12    30 1   
    32    12    50 1   
    33    12    51 1   
    34    12    52 1   
    35    13    14 ar  
    36    13    36 1   
    37    14    15 ar  
    38    14    53 1   
    39    15    54 1   
    40    16    36 1   
    41    16    55 1   
    42    16    56 1   
    43    16    57 1   
    44    17    18 ar  
    45    17    22 ar  
    46    17    25 1   
    47    18    19 ar  
    48    18    58 1   
    49    19    20 ar  
    50    19    59 1   
    51    20    21 ar  
    52    20    60 1   
    53    21    22 ar  
    54    21    61 1   
    55    22    62 1   
    56    23    24 1   
    57    23    30 1   
    58    23    31 2   
    59    24    25 1   
    60    24    28 1   
    61    24    63 1   
    62    25    26 1   
    63    25    64 1   
    64    26    27 1   
    65    26    33 1   
    66    27    28 1   
    67    27    29 1   
    68    27    35 1   
    69    28    32 1   
    70    28    65 1   
    71    32    66 1   
    72    35    67 1   
@<TRIPOS>SUBSTRUCTURE
     1 RCG         1 TEMP              0 ****  ****    0 ROOT
