@<TRIPOS>MOLECULE
RCH
   72    76     1     0     0
SMALL
No Charge or Current Charge


@<TRIPOS>ATOM
      1 C1          -8.5320   -24.1260     6.8360 c3         1 RCH      -0.104100
      2 C2          -9.1310   -24.7760     8.1050 c3         1 RCH       0.135400
      3 C3          -8.8520   -26.3000     8.0700 c3         1 RCH      -0.104100
      4 C4         -10.6550   -24.5020     8.1410 c3         1 RCH      -0.104100
      5 C6          -8.6780   -24.4220    10.6010 c          1 RCH       0.610700
      6 C8          -7.8410   -23.6200    11.5770 ca         1 RCH      -0.107600
      7 C12         -6.1510   -21.9490    12.1460 ca         1 RCH       0.353300
      8 C15         -7.3360   -23.2620    15.2810 cg         1 RCH      -0.203000
      9 C16         -7.4580   -23.4330    16.4840 ch         1 RCH      -0.078000
     10 C17         -7.5880   -23.6200    17.8900 ca         1 RCH       0.038000
     11 C18         -6.7760   -22.8760    18.7770 ca         1 RCH      -0.071000
     12 C19         -6.9320   -23.0880    20.1520 ca         1 RCH       0.042100
     13 O20         -6.2250   -22.4500    21.1550 os         1 RCH      -0.171200
     14 C21         -6.7360   -22.9960    22.3340 cc         1 RCH       0.103900
     15 C23         -7.8470   -23.9930    20.6290 ca         1 RCH      -0.052800
     16 C24         -8.6700   -24.7500    19.7870 ca         1 RCH      -0.056000
     17 C30         -8.3260   -24.7320    26.9220 ca         1 RCH      -0.168000
     18 C31         -7.3280   -23.7950    27.2240 ca         1 RCH       0.323000
     19 C34         -6.1630   -25.9300    29.4450 c3         1 RCH      -0.385100
     20 C37         -6.6870   -23.1210    26.1760 ca         1 RCH      -0.166000
     21 C38         -7.0090   -23.3710    24.8220 ca         1 RCH      -0.001300
     22 C39         -6.2570   -22.5940    23.7070 c6         1 RCH       0.044500
     23 C40         -4.7270   -22.8780    23.7970 c3         1 RCH      -0.079100
     24 N5          -8.4660   -24.1550     9.2590 ns         1 RCH      -0.502900
     25 O7          -9.4900   -25.2510    10.9880 o          1 RCH      -0.601100
     26 C9          -7.9870   -23.8200    12.9670 ca         1 RCH      -0.097000
     27 C10         -7.2050   -23.0740    13.8650 ca         1 RCH       0.473000
     28 N11         -6.3000   -22.1530    13.4710 nb         1 RCH      -0.651000
     29 C13         -5.1220   -20.9110    11.7400 c3         1 RCH      -0.143400
     30 C14         -6.8890   -22.6520    11.1730 ca         1 RCH      -0.145000
     31 C22         -7.7050   -23.9190    22.0500 cd         1 RCH      -0.221400
     32 C25         -8.5300   -24.5530    18.3960 ca         1 RCH      -0.100000
     33 C26         -8.4190   -24.6550    23.1060 c          1 RCH       0.621900
     34 O27         -9.2870   -25.4820    22.8510 o          1 RCH      -0.531100
     35 C28         -8.0180   -24.3320    24.5270 ca         1 RCH      -0.182600
     36 C29         -8.6670   -25.0000    25.5880 ca         1 RCH      -0.019000
     37 N32         -6.9510   -23.4890    28.5270 nu         1 RCH      -0.912100
     38 S33         -7.0130   -24.4310    29.8880 s6         1 RCH       1.242100
     39 O35         -6.2120   -23.7090    30.8770 o          1 RCH      -0.530500
     40 O36         -8.4260   -24.7190    30.1390 o          1 RCH      -0.530500
     41 C41         -6.4830   -21.0610    23.8780 c3         1 RCH      -0.079100
     42 H1          -7.4500   -24.2960     6.7810 hc         1 RCH       0.046700
     43 H2          -8.9860   -24.5450     5.9300 hc         1 RCH       0.046700
     44 H3          -8.7070   -23.0430     6.8310 hc         1 RCH       0.046700
     45 H4          -9.3100   -26.8160     8.9210 hc         1 RCH       0.046700
     46 H5          -9.2600   -26.7480     7.1550 hc         1 RCH       0.046700
     47 H6          -7.7740   -26.5000     8.0920 hc         1 RCH       0.046700
     48 H7         -11.1360   -24.9970     8.9930 hc         1 RCH       0.046700
     49 H8         -10.8560   -23.4270     8.2140 hc         1 RCH       0.046700
     50 H9         -11.1380   -24.8750     7.2300 hc         1 RCH       0.046700
     51 H10         -6.0490   -22.1570    18.4070 ha         1 RCH       0.142000
     52 H11         -9.3890   -25.4620    20.1830 ha         1 RCH       0.143000
     53 H12         -8.8560   -25.2570    27.7080 ha         1 RCH       0.149000
     54 H13         -6.1520   -26.5720    30.3320 h1         1 RCH       0.106367
     55 H14         -6.7160   -26.3970    28.6250 h1         1 RCH       0.106367
     56 H15         -5.1490   -25.6570    29.1390 h1         1 RCH       0.106367
     57 H16         -5.9220   -22.3910    26.4220 ha         1 RCH       0.118000
     58 H17         -4.3010   -22.5520    24.7530 hc         1 RCH       0.050033
     59 H18         -4.5220   -23.9510    23.6940 hc         1 RCH       0.050033
     60 H19         -4.1740   -22.3610    23.0040 hc         1 RCH       0.050033
     61 H20         -7.7700   -23.4500     9.0610 hn         1 RCH       0.311500
     62 H21         -8.6970   -24.5460    13.3550 ha         1 RCH       0.151000
     63 H22         -4.1590   -21.3860    11.5230 hc         1 RCH       0.054033
     64 H23         -5.4410   -20.3700    10.8420 hc         1 RCH       0.054033
     65 H24         -4.9610   -20.1690    12.5320 hc         1 RCH       0.054033
     66 H25         -6.7070   -22.4320    10.1260 ha         1 RCH       0.122000
     67 H26         -9.1520   -25.1230    17.7100 ha         1 RCH       0.127000
     68 H27         -9.4450   -25.7340    25.3830 ha         1 RCH       0.145000
     69 H28         -6.1470   -22.8910    28.6560 hn         1 RCH       0.503000
     70 H29         -6.1000   -20.6910    24.8360 hc         1 RCH       0.050033
     71 H30         -5.9820   -20.4900    23.0870 hc         1 RCH       0.050033
     72 H31         -7.5520   -20.8170    23.8340 hc         1 RCH       0.050033
@<TRIPOS>BOND
     1     1     2 1   
     2     1    42 1   
     3     1    43 1   
     4     1    44 1   
     5     2     3 1   
     6     2     4 1   
     7     2    24 1   
     8     3    45 1   
     9     3    46 1   
    10     3    47 1   
    11     4    48 1   
    12     4    49 1   
    13     4    50 1   
    14     5     6 1   
    15     5    24 1   
    16     5    25 2   
    17     6    26 ar  
    18     6    30 ar  
    19     7    28 ar  
    20     7    29 1   
    21     7    30 ar  
    22     8     9 3   
    23     8    27 1   
    24     9    10 1   
    25    10    11 ar  
    26    10    32 ar  
    27    11    12 ar  
    28    11    51 1   
    29    12    13 1   
    30    12    15 ar  
    31    13    14 1   
    32    14    22 1   
    33    14    31 2   
    34    15    16 ar  
    35    15    31 1   
    36    16    32 ar  
    37    16    52 1   
    38    17    18 ar  
    39    17    36 ar  
    40    17    53 1   
    41    18    20 ar  
    42    18    37 1   
    43    19    38 1   
    44    19    54 1   
    45    19    55 1   
    46    19    56 1   
    47    20    21 ar  
    48    20    57 1   
    49    21    22 1   
    50    21    35 ar  
    51    22    23 1   
    52    22    41 1   
    53    23    58 1   
    54    23    59 1   
    55    23    60 1   
    56    24    61 1   
    57    26    27 ar  
    58    26    62 1   
    59    27    28 ar  
    60    29    63 1   
    61    29    64 1   
    62    29    65 1   
    63    30    66 1   
    64    31    33 1   
    65    32    67 1   
    66    33    34 2   
    67    33    35 1   
    68    35    36 ar  
    69    36    68 1   
    70    37    38 1   
    71    37    69 1   
    72    38    39 2   
    73    38    40 2   
    74    41    70 1   
    75    41    71 1   
    76    41    72 1   
@<TRIPOS>SUBSTRUCTURE
     1 RCH         1 TEMP              0 ****  ****    0 ROOT
