@<TRIPOS>MOLECULE
RCH
   72    76     1     0     0
SMALL
abcg2


@<TRIPOS>ATOM
      1 C1          -7.8770   -24.9180     7.1840 c3         1 RCH      -0.104100
      2 C2          -8.8690   -25.0560     8.3400 c3         1 RCH       0.135400
      3 C3          -8.9990   -26.5300     8.7420 c3         1 RCH      -0.104100
      4 C4         -10.2270   -24.4790     7.9280 c3         1 RCH      -0.104100
      5 C6          -8.8580   -24.0810    10.6690 c          1 RCH       0.610700
      6 C8          -8.0480   -23.2420    11.6250 ca         1 RCH      -0.107600
      7 C12         -6.4990   -21.4800    12.1690 ca         1 RCH       0.353300
      8 C15         -7.5340   -22.9490    15.2810 cg         1 RCH      -0.203000
      9 C16         -7.6270   -23.1650    16.4660 ch         1 RCH      -0.078000
     10 C17         -7.7440   -23.4160    17.8580 ca         1 RCH       0.038000
     11 C18         -6.8670   -22.7870    18.7580 ca         1 RCH      -0.071000
     12 C19         -7.0490   -23.0750    20.0900 ca         1 RCH       0.042100
     13 O20         -6.2970   -22.5690    21.1330 os         1 RCH      -0.171200
     14 C21         -6.8060   -23.1010    22.2750 cc         1 RCH       0.103900
     15 C23         -8.0410   -23.9360    20.5860 ca         1 RCH      -0.052800
     16 C24         -8.9050   -24.5570    19.6820 ca         1 RCH      -0.056000
     17 C30         -8.2780   -24.7320    26.8380 ca         1 RCH      -0.168000
     18 C31         -7.1880   -23.8880    27.0770 ca         1 RCH       0.323000
     19 C34         -6.0540   -26.0640    29.3350 c3         1 RCH      -0.385100
     20 C37         -6.5420   -23.2730    26.0050 ca         1 RCH      -0.166000
     21 C38         -6.9580   -23.4690    24.6940 ca         1 RCH      -0.001300
     22 C39         -6.2020   -22.7420    23.5820 c6         1 RCH       0.044500
     23 C40         -4.7120   -23.1660    23.5760 c3         1 RCH      -0.079100
     24 N5          -8.3020   -24.2750     9.4620 ns         1 RCH      -0.502900
     25 O7          -9.9460   -24.5410    11.0210 o          1 RCH      -0.601100
     26 C9          -8.1790   -23.4850    12.9850 ca         1 RCH      -0.097000
     27 C10         -7.4350   -22.7120    13.8790 ca         1 RCH       0.473000
     28 N11         -6.6100   -21.7280    13.4760 nb         1 RCH      -0.651000
     29 C13         -5.5860   -20.3590    11.7670 c3         1 RCH      -0.143400
     30 C14         -7.1990   -22.2200    11.2130 ca         1 RCH      -0.145000
     31 C22         -7.8580   -23.9290    22.0190 cd         1 RCH      -0.221400
     32 C25         -8.7460   -24.2940    18.3320 ca         1 RCH      -0.100000
     33 C26         -8.5690   -24.5960    23.0900 c          1 RCH       0.621900
     34 O27         -9.5330   -25.3330    22.8820 o          1 RCH      -0.531100
     35 C28         -8.0530   -24.3230    24.4540 ca         1 RCH      -0.182600
     36 C29         -8.6870   -24.9390    25.5370 ca         1 RCH      -0.019000
     37 N32         -6.7180   -23.5930    28.3690 nu         1 RCH      -0.912100
     38 S33         -6.8730   -24.5400    29.7160 s6         1 RCH       1.242100
     39 O35         -6.1320   -23.8410    30.7370 o          1 RCH      -0.530500
     40 O36         -8.2730   -24.8150    29.9260 o          1 RCH      -0.530500
     41 C41         -6.3090   -21.2100    23.7770 c3         1 RCH      -0.079100
     42 H1          -6.8950   -25.3050     7.4660 hc         1 RCH       0.046700
     43 H2          -8.2330   -25.4850     6.3240 hc         1 RCH       0.046700
     44 H3          -7.7700   -23.8720     6.8870 hc         1 RCH       0.046700
     45 H4          -9.6760   -26.6440     9.5870 hc         1 RCH       0.046700
     46 H5          -9.3900   -27.1060     7.9020 hc         1 RCH       0.046700
     47 H6          -8.0240   -26.9360     9.0150 hc         1 RCH       0.046700
     48 H7         -10.9490   -24.5570     8.7380 hc         1 RCH       0.046700
     49 H8         -10.1240   -23.4280     7.6490 hc         1 RCH       0.046700
     50 H9         -10.6070   -25.0290     7.0660 hc         1 RCH       0.046700
     51 H10         -6.0940   -22.1150    18.4160 ha         1 RCH       0.142000
     52 H11         -9.6780   -25.2280    20.0260 ha         1 RCH       0.143000
     53 H12         -8.7990   -25.2060    27.6550 ha         1 RCH       0.149000
     54 H13         -6.1660   -26.7090    30.2060 h1         1 RCH       0.106367
     55 H14         -6.5340   -26.5120    28.4670 h1         1 RCH       0.106367
     56 H15         -5.0060   -25.8490    29.1390 h1         1 RCH       0.106367
     57 H16         -5.7010   -22.6270    26.2150 ha         1 RCH       0.118000
     58 H17         -4.2340   -22.8660    24.5070 hc         1 RCH       0.050033
     59 H18         -4.6210   -24.2470    23.4640 hc         1 RCH       0.050033
     60 H19         -4.1920   -22.6800    22.7500 hc         1 RCH       0.050033
     61 H20         -7.3720   -23.9120     9.3220 hn         1 RCH       0.311500
     62 H21         -8.8390   -24.2610    13.3450 ha         1 RCH       0.151000
     63 H22         -4.5750   -20.5460    12.1340 hc         1 RCH       0.054033
     64 H23         -5.5510   -20.2440    10.6850 hc         1 RCH       0.054033
     65 H24         -5.9260   -19.4200    12.2100 hc         1 RCH       0.054033
     66 H25         -7.0860   -21.9700    10.1670 ha         1 RCH       0.122000
     67 H26         -9.4020   -24.7630    17.6120 ha         1 RCH       0.127000
     68 H27         -9.5260   -25.5910    25.3350 ha         1 RCH       0.145000
     69 H28         -5.8810   -23.0240    28.4100 hn         1 RCH       0.503000
     70 H29         -5.8400   -20.9210    24.7160 hc         1 RCH       0.050033
     71 H30         -5.8000   -20.6950    22.9630 hc         1 RCH       0.050033
     72 H31         -7.3540   -20.8980    23.7950 hc         1 RCH       0.050033
@<TRIPOS>BOND
     1     1     2 1   
     2     1    42 1   
     3     1    43 1   
     4     1    44 1   
     5     2     3 1   
     6     2     4 1   
     7     2    24 1   
     8     3    45 1   
     9     3    46 1   
    10     3    47 1   
    11     4    48 1   
    12     4    49 1   
    13     4    50 1   
    14     5     6 1   
    15     5    24 1   
    16     5    25 2   
    17     6    26 ar  
    18     6    30 ar  
    19     7    28 ar  
    20     7    29 1   
    21     7    30 ar  
    22     8     9 3   
    23     8    27 1   
    24     9    10 1   
    25    10    11 ar  
    26    10    32 ar  
    27    11    12 ar  
    28    11    51 1   
    29    12    13 1   
    30    12    15 ar  
    31    13    14 1   
    32    14    22 1   
    33    14    31 2   
    34    15    16 ar  
    35    15    31 1   
    36    16    32 ar  
    37    16    52 1   
    38    17    18 ar  
    39    17    36 ar  
    40    17    53 1   
    41    18    20 ar  
    42    18    37 1   
    43    19    38 1   
    44    19    54 1   
    45    19    55 1   
    46    19    56 1   
    47    20    21 ar  
    48    20    57 1   
    49    21    22 1   
    50    21    35 ar  
    51    22    23 1   
    52    22    41 1   
    53    23    58 1   
    54    23    59 1   
    55    23    60 1   
    56    24    61 1   
    57    26    27 ar  
    58    26    62 1   
    59    27    28 ar  
    60    29    63 1   
    61    29    64 1   
    62    29    65 1   
    63    30    66 1   
    64    31    33 1   
    65    32    67 1   
    66    33    34 2   
    67    33    35 1   
    68    35    36 ar  
    69    36    68 1   
    70    37    38 1   
    71    37    69 1   
    72    38    39 2   
    73    38    40 2   
    74    41    70 1   
    75    41    71 1   
    76    41    72 1   
@<TRIPOS>SUBSTRUCTURE
     1 RCH         1 TEMP              0 ****  ****    0 ROOT
