@<TRIPOS>MOLECULE
RCI
   10     9     1     0     0
SMALL
No Charge or Current Charge


@<TRIPOS>ATOM
      1 Cl1          1.6160    -0.6680     0.0920 cl         1 RCI      -0.379000
      2 O2          -1.4530     0.2630     1.1800 o          1 RCI      -0.715000
      3 O3          -1.8970    -0.7070    -0.6900 o          1 RCI      -0.715000
      4 C4           0.2360     0.3690    -0.5320 c3         1 RCI       0.038300
      5 C5           0.5560     1.8630    -0.2930 c3         1 RCI      -0.078100
      6 C6          -1.1540    -0.0570     0.0350 c          1 RCI       0.723000
      7 H2           0.2070     0.2010    -1.6160 h1         1 RCI       0.046700
      8 H3           1.4970     2.1370    -0.7840 hc         1 RCI       0.026033
      9 H4          -0.2400     2.4960    -0.7020 hc         1 RCI       0.026033
     10 H5           0.6530     2.0770     0.7790 hc         1 RCI       0.026033
@<TRIPOS>BOND
     1     1     4 1   
     2     2     6 1   
     3     3     6 1   
     4     4     5 1   
     5     4     6 1   
     6     4     7 1   
     7     5     8 1   
     8     5     9 1   
     9     5    10 1   
@<TRIPOS>SUBSTRUCTURE
     1 RCI         1 TEMP              0 ****  ****    0 ROOT
