@<TRIPOS>MOLECULE
RCI
   10     9     1     0     0
SMALL
abcg2


@<TRIPOS>ATOM
      1 CL1          1.5210    -0.6500     0.1360 cl         1 RCI      -0.379000
      2 O2          -1.3150     0.2440     1.2360 o          1 RCI      -0.715000
      3 O3          -1.8980    -0.6730    -0.7150 o          1 RCI      -0.715000
      4 C4           0.2100     0.4030    -0.5760 c3         1 RCI       0.038300
      5 C5           0.5450     1.8490    -0.3010 c3         1 RCI      -0.078100
      6 C6          -1.1310    -0.0540     0.0450 c          1 RCI       0.723000
      7 H2           0.2340     0.1910    -1.6430 h1         1 RCI       0.046700
      8 H3           1.4990     2.1300    -0.7460 hc         1 RCI       0.026033
      9 H4          -0.2270     2.4880    -0.7350 hc         1 RCI       0.026033
     10 H5           0.5840     2.0440     0.7690 hc         1 RCI       0.026033
@<TRIPOS>BOND
     1     1     4 1   
     2     2     6 1   
     3     3     6 1   
     4     4     5 1   
     5     4     6 1   
     6     4     7 1   
     7     5     8 1   
     8     5     9 1   
     9     5    10 1   
@<TRIPOS>SUBSTRUCTURE
     1 RCI         1 TEMP              0 ****  ****    0 ROOT
