@<TRIPOS>MOLECULE
RCJ
   41    40     1     0     0
SMALL
No Charge or Current Charge


@<TRIPOS>ATOM
      1 O1A          5.7850    -0.4920     1.0900 o          1 RCJ      -0.720500
      2 C1           5.1400    -0.2840     0.0690 c          1 RCJ       0.692000
      3 O1B          5.5310     0.4340    -0.8410 o          1 RCJ      -0.720500
      4 C2           3.8120    -1.1070    -0.1310 c3         1 RCJ       0.023300
      5 O2           3.7480    -2.2460     0.7670 oh         1 RCJ      -0.712000
      6 C3           2.5580    -0.2170     0.0810 c3         1 RCJ      -0.104400
      7 C4           1.2180    -0.8740    -0.3460 c3         1 RCJ       0.158300
      8 O4           1.2130    -1.0370    -1.7770 oh         1 RCJ      -0.660000
      9 C5          -0.0310    -0.0440     0.0970 c3         1 RCJ       0.044700
     10 N5          -0.0820     1.2650    -0.5950 ns         1 RCJ      -0.508900
     11 C10          0.2890     2.4710    -0.0400 c          1 RCJ       0.606100
     12 C11          0.1210     3.6710    -0.9610 c3         1 RCJ      -0.181100
     13 O10          0.7170     2.5720     1.1000 o          1 RCJ      -0.590100
     14 C6          -1.3730    -0.8260    -0.0680 c3         1 RCJ       0.138300
     15 O6          -1.3420    -2.0200     0.7300 oh         1 RCJ      -0.701000
     16 C7          -2.6300    -0.0250     0.4030 c3         1 RCJ       0.102300
     17 O7          -2.6320    -0.0120     1.8530 oh         1 RCJ      -0.708000
     18 C8          -3.9710    -0.6240    -0.1320 c3         1 RCJ       0.136300
     19 O8          -4.0040    -0.5830    -1.5680 oh         1 RCJ      -0.687000
     20 C9          -5.2310     0.1330     0.3660 c3         1 RCJ       0.123600
     21 O9          -6.3910    -0.3320    -0.3520 oh         1 RCJ      -0.709000
     22 H2           3.8190    -1.4580    -1.1720 h1         1 RCJ       0.032700
     23 H3           4.5040    -2.1120     1.3900 ho         1 RCJ       0.474000
     24 H4           2.5020     0.0620     1.1410 hc         1 RCJ       0.053200
     25 H5           2.6920     0.7200    -0.4740 hc         1 RCJ       0.053200
     26 H6           1.1610    -1.8550     0.1460 h1         1 RCJ       0.095700
     27 H7           1.3990    -0.1550    -2.1600 ho         1 RCJ       0.429000
     28 H8           0.0810     0.1480     1.1730 h1         1 RCJ       0.093700
     29 H9          -0.4400     1.2980    -1.5430 hn         1 RCJ       0.299500
     30 H10          0.6750     3.4890    -1.8890 hc         1 RCJ       0.054033
     31 H11         -0.9160     3.7090    -1.3140 hc         1 RCJ       0.054033
     32 H12          0.4220     4.6130    -0.4890 hc         1 RCJ       0.054033
     33 H13         -1.4860    -1.0760    -1.1330 h1         1 RCJ       0.092700
     34 H14         -1.7910    -1.7220     1.5610 ho         1 RCJ       0.497000
     35 H15         -2.5590     1.0010     0.0160 h1         1 RCJ       0.068700
     36 H16         -2.9080     0.8880     2.1470 ho         1 RCJ       0.498000
     37 H17         -4.0480    -1.6640     0.2170 h1         1 RCJ       0.093700
     38 H18         -4.9730    -0.5550    -1.7630 ho         1 RCJ       0.490000
     39 H19         -5.3550    -0.0390     1.4440 h1         1 RCJ       0.024700
     40 H20         -5.0960     1.2120     0.2120 h1         1 RCJ       0.024700
     41 H21         -7.1790     0.0970     0.0590 ho         1 RCJ       0.496000
@<TRIPOS>BOND
     1     1     2 1   
     2     2     3 1   
     3     2     4 1   
     4     4     5 1   
     5     4     6 1   
     6     4    22 1   
     7     5    23 1   
     8     6     7 1   
     9     6    24 1   
    10     6    25 1   
    11     7     8 1   
    12     7     9 1   
    13     7    26 1   
    14     8    27 1   
    15     9    10 1   
    16     9    14 1   
    17     9    28 1   
    18    10    11 1   
    19    10    29 1   
    20    11    12 1   
    21    11    13 2   
    22    12    30 1   
    23    12    31 1   
    24    12    32 1   
    25    14    15 1   
    26    14    16 1   
    27    14    33 1   
    28    15    34 1   
    29    16    17 1   
    30    16    18 1   
    31    16    35 1   
    32    17    36 1   
    33    18    19 1   
    34    18    20 1   
    35    18    37 1   
    36    19    38 1   
    37    20    21 1   
    38    20    39 1   
    39    20    40 1   
    40    21    41 1   
@<TRIPOS>SUBSTRUCTURE
     1 RCJ         1 TEMP              0 ****  ****    0 ROOT
