@<TRIPOS>MOLECULE
RCJ
   41    40     1     0     0
SMALL
abcg2


@<TRIPOS>ATOM
      1 O1A          5.6230    -0.8380     1.1810 o          1 RCJ      -0.720500
      2 C1           4.9590    -0.2810     0.2750 c          1 RCJ       0.692000
      3 O1B          5.2160     0.7860    -0.3020 o          1 RCJ      -0.720500
      4 C2           3.6790    -1.0370    -0.1420 c3         1 RCJ       0.023300
      5 O2           3.5960    -2.2420     0.5810 oh         1 RCJ      -0.712000
      6 C3           2.4450    -0.1680     0.0870 c3         1 RCJ      -0.104400
      7 C4           1.1390    -0.8540    -0.2930 c3         1 RCJ       0.158300
      8 O4           1.0990    -1.2010    -1.6630 oh         1 RCJ      -0.660000
      9 C5          -0.0810    -0.0060     0.1060 c3         1 RCJ       0.044700
     10 N5          -0.0990     1.2500    -0.6100 ns         1 RCJ      -0.508900
     11 C10          0.1650     2.4520    -0.0590 c          1 RCJ       0.606100
     12 C11          0.0580     3.6230    -1.0040 c3         1 RCJ      -0.181100
     13 O10          0.4740     2.6010     1.1140 o          1 RCJ      -0.590100
     14 C6          -1.4080    -0.7520    -0.1240 c3         1 RCJ       0.138300
     15 O6          -1.4010    -2.0030     0.5280 oh         1 RCJ      -0.701000
     16 C7          -2.6250     0.0870     0.2900 c3         1 RCJ       0.102300
     17 O7          -2.5570     0.4700     1.6480 oh         1 RCJ      -0.708000
     18 C8          -3.9540    -0.6280    -0.0170 c3         1 RCJ       0.136300
     19 O8          -3.9930    -1.0940    -1.3470 oh         1 RCJ      -0.687000
     20 C9          -5.1380     0.2750     0.2930 c3         1 RCJ       0.123600
     21 O9          -6.3280    -0.4510     0.0930 oh         1 RCJ      -0.709000
     22 H2           3.7590    -1.2540    -1.2170 h1         1 RCJ       0.032700
     23 H3           4.3750    -2.1760     1.1650 ho         1 RCJ       0.474000
     24 H4           2.3930     0.1210     1.1410 hc         1 RCJ       0.053200
     25 H5           2.5600     0.7590    -0.4830 hc         1 RCJ       0.053200
     26 H6           1.0770    -1.7960     0.2560 h1         1 RCJ       0.095700
     27 H7           1.4060    -0.4470    -2.1790 ho         1 RCJ       0.429000
     28 H8           0.0110     0.2280     1.1700 h1         1 RCJ       0.093700
     29 H9          -0.3500     1.2260    -1.5850 hn         1 RCJ       0.299500
     30 H10         -0.2520     3.3480    -2.0100 hc         1 RCJ       0.054033
     31 H11         -0.6570     4.3430    -0.6060 hc         1 RCJ       0.054033
     32 H12          1.0230     4.1260    -1.0650 hc         1 RCJ       0.054033
     33 H13         -1.4980    -0.9700    -1.1910 h1         1 RCJ       0.092700
     34 H14         -1.1310    -1.8820     1.4450 ho         1 RCJ       0.497000
     35 H15         -2.6060     1.0190    -0.2840 h1         1 RCJ       0.068700
     36 H16         -2.7810    -0.2860     2.2000 ho         1 RCJ       0.498000
     37 H17         -4.0200    -1.5240     0.6120 h1         1 RCJ       0.093700
     38 H18         -4.0180    -0.3330    -1.9380 ho         1 RCJ       0.490000
     39 H19         -5.0570     0.6400     1.3220 h1         1 RCJ       0.024700
     40 H20         -5.0890     1.1590    -0.3620 h1         1 RCJ       0.024700
     41 H21         -7.0660     0.1340     0.2880 ho         1 RCJ       0.496000
@<TRIPOS>BOND
     1     1     2 1   
     2     2     3 1   
     3     2     4 1   
     4     4     5 1   
     5     4     6 1   
     6     4    22 1   
     7     5    23 1   
     8     6     7 1   
     9     6    24 1   
    10     6    25 1   
    11     7     8 1   
    12     7     9 1   
    13     7    26 1   
    14     8    27 1   
    15     9    10 1   
    16     9    14 1   
    17     9    28 1   
    18    10    11 1   
    19    10    29 1   
    20    11    12 1   
    21    11    13 2   
    22    12    30 1   
    23    12    31 1   
    24    12    32 1   
    25    14    15 1   
    26    14    16 1   
    27    14    33 1   
    28    15    34 1   
    29    16    17 1   
    30    16    18 1   
    31    16    35 1   
    32    17    36 1   
    33    18    19 1   
    34    18    20 1   
    35    18    37 1   
    36    19    38 1   
    37    20    21 1   
    38    20    39 1   
    39    20    40 1   
    40    21    41 1   
@<TRIPOS>SUBSTRUCTURE
     1 RCJ         1 TEMP              0 ****  ****    0 ROOT
