@<TRIPOS>MOLECULE
RCK
   61    65     1     0     0
SMALL
No Charge or Current Charge


@<TRIPOS>ATOM
      1 C02         -2.8790   -27.7130    -9.2050 ca         1 RCK       0.173000
      2 C03         -2.1510   -28.6420    -8.4430 ca         1 RCK      -0.147000
      3 C04         -2.5210   -29.9980    -8.4440 ca         1 RCK      -0.085000
      4 C05         -3.6190   -30.4200    -9.2110 ca         1 RCK      -0.123000
      5 C06         -4.3480   -29.4910    -9.9740 ca         1 RCK      -0.071000
      6 C07         -3.9860   -28.1270    -9.9760 ca         1 RCK      -0.132300
      7 C08         -4.7890   -27.1280   -10.8070 c3         1 RCK       0.287100
      8 C10         -6.6430   -26.6410    -9.1130 ca         1 RCK       0.459900
      9 C11         -7.9550   -26.8450    -8.7150 ca         1 RCK      -0.402900
     10 C12         -8.3710   -26.4150    -7.4940 ca         1 RCK       0.170500
     11 C15        -10.9510   -24.9210    -6.2460 c3         1 RCK      -0.052100
     12 C16        -11.7410   -24.5650    -4.9950 ca         1 RCK      -0.084300
     13 C17        -11.0850   -24.4620    -3.7520 ca         1 RCK      -0.107000
     14 C18        -11.8080   -24.1320    -2.5930 ca         1 RCK      -0.110000
     15 C19        -13.1920   -23.9030    -2.6700 ca         1 RCK      -0.108000
     16 C20        -13.8520   -24.0050    -3.9060 ca         1 RCK      -0.110000
     17 C21        -13.1290   -24.3350    -5.0650 ca         1 RCK      -0.107000
     18 C23         -9.0870   -27.4530    -9.3560 cc         1 RCK       0.389800
     19 C25         -6.2730   -25.6090    -7.0900 ca         1 RCK       0.321300
     20 C27         -6.2060   -23.7100    -4.9560 c3         1 RCK       0.303800
     21 C29         -8.0110   -22.0210    -5.1790 c6         1 RCK       0.134300
     22 C30         -7.5410   -20.9900    -4.1070 c6         1 RCK       0.116100
     23 C32         -5.4720   -20.6460    -5.3110 c6         1 RCK       0.116100
     24 C33         -5.9130   -21.6780    -6.3940 c6         1 RCK       0.134300
     25 F01         -2.4950   -26.4160    -9.1900 f          1 RCK      -0.184000
     26 N09         -6.1890   -27.0710   -10.3480 nu         1 RCK      -0.922100
     27 N13         -9.7080   -26.7550    -7.4380 na         1 RCK      -0.024100
     28 N22        -10.1800   -27.3990    -8.5800 nd         1 RCK      -0.528100
     29 N24         -7.5380   -25.7960    -6.6420 nb         1 RCK      -0.241000
     30 N28         -6.8550   -22.7060    -5.8380 n3         1 RCK      -0.715600
     31 N34         -5.7860   -26.0100    -8.2890 nb         1 RCK      -0.285000
     32 O31         -6.6340   -20.0300    -4.7030 os         1 RCK      -0.447000
     33 S26         -5.1220   -24.7780    -6.0040 ss         1 RCK      -0.322300
     34 H1          -1.3010   -28.3090    -7.8530 ha         1 RCK       0.132000
     35 H2          -1.9580   -30.7180    -7.8530 ha         1 RCK       0.117000
     36 H3          -3.9070   -31.4690    -9.2140 ha         1 RCK       0.118000
     37 H4          -5.1980   -29.8310   -10.5630 ha         1 RCK       0.117000
     38 H5          -4.3360   -26.1290   -10.7570 h1         1 RCK       0.071700
     39 H6          -4.7510   -27.4420   -11.8600 h1         1 RCK       0.071700
     40 H7         -11.4860   -27.0220    -6.3430 h1         1 RCK       0.070200
     41 H8         -10.0430   -26.6880    -5.3710 h1         1 RCK       0.070200
     42 H9         -10.0370   -24.3160    -6.2850 hc         1 RCK       0.064700
     43 H10        -11.5200   -24.6700    -7.1500 hc         1 RCK       0.064700
     44 H11        -10.0140   -24.6390    -3.6840 ha         1 RCK       0.114000
     45 H12        -11.2960   -24.0540    -1.6370 ha         1 RCK       0.113500
     46 H13        -13.7530   -23.6480    -1.7730 ha         1 RCK       0.113000
     47 H14        -14.9240   -23.8290    -3.9660 ha         1 RCK       0.113500
     48 H15        -13.6490   -24.4120    -6.0180 ha         1 RCK       0.114000
     49 H16         -9.1890   -27.9200   -10.3270 h4         1 RCK       0.044800
     50 H17         -6.9600   -24.3470    -4.4770 h2         1 RCK       0.069700
     51 H18         -5.6040   -23.2270    -4.1770 h2         1 RCK       0.069700
     52 H20         -8.6830   -22.7530    -4.7080 h1         1 RCK       0.066700
     53 H21         -8.4090   -20.4550    -3.6980 h1         1 RCK       0.047700
     54 H22         -7.0340   -21.5030    -3.2770 h1         1 RCK       0.047700
     55 H23         -4.8710   -21.1380    -4.5330 h1         1 RCK       0.047700
     56 H24         -4.8530   -19.8640    -5.7720 h1         1 RCK       0.047700
     57 H25         -5.0200   -22.1440    -6.8350 h1         1 RCK       0.066700
     58 H26         -6.4050   -21.1280    -7.2090 h1         1 RCK       0.066700
     59 H27         -6.8850   -27.5230   -10.9380 hn         1 RCK       0.502000
     60 C14        -10.5730   -26.4170    -6.2930 c3         1 RCK       0.098600
     61 H19         -8.6090   -21.4880    -5.9320 h1         1 RCK       0.066700
@<TRIPOS>BOND
     1     1     2 ar  
     2     1     6 ar  
     3     1    25 1   
     4     2     3 ar  
     5     2    34 1   
     6     3     4 ar  
     7     3    35 1   
     8     4     5 ar  
     9     4    36 1   
    10     5     6 ar  
    11     5    37 1   
    12     6     7 1   
    13     7    26 1   
    14     7    38 1   
    15     7    39 1   
    16     8     9 ar  
    17     8    26 1   
    18     8    31 ar  
    19     9    10 ar  
    20     9    18 1   
    21    10    27 1   
    22    10    29 ar  
    23    11    12 1   
    24    11    42 1   
    25    11    43 1   
    26    11    60 1   
    27    12    13 ar  
    28    12    17 ar  
    29    13    14 ar  
    30    13    44 1   
    31    14    15 ar  
    32    14    45 1   
    33    15    16 ar  
    34    15    46 1   
    35    16    17 ar  
    36    16    47 1   
    37    17    48 1   
    38    18    28 2   
    39    18    49 1   
    40    19    29 ar  
    41    19    31 ar  
    42    19    33 1   
    43    20    30 1   
    44    20    33 1   
    45    20    50 1   
    46    20    51 1   
    47    21    22 1   
    48    21    30 1   
    49    21    52 1   
    50    21    61 1   
    51    22    32 1   
    52    22    53 1   
    53    22    54 1   
    54    23    24 1   
    55    23    32 1   
    56    23    55 1   
    57    23    56 1   
    58    24    30 1   
    59    24    57 1   
    60    24    58 1   
    61    26    59 1   
    62    27    28 1   
    63    27    60 1   
    64    40    60 1   
    65    41    60 1   
@<TRIPOS>SUBSTRUCTURE
     1 RCK         1 TEMP              0 ****  ****    0 ROOT
