@<TRIPOS>MOLECULE
RCK
   61    65     1     0     0
SMALL
abcg2


@<TRIPOS>ATOM
      1 C02         -2.6550   -27.9730   -10.4980 ca         1 RCK       0.173000
      2 C03         -1.6030   -28.6610    -9.9300 ca         1 RCK      -0.147000
      3 C04         -1.8860   -29.6370    -8.9830 ca         1 RCK      -0.085000
      4 C05         -3.2020   -29.9000    -8.6330 ca         1 RCK      -0.123000
      5 C06         -4.2370   -29.1860    -9.2240 ca         1 RCK      -0.071000
      6 C07         -3.9830   -28.2000   -10.1690 ca         1 RCK      -0.132300
      7 C08         -5.0670   -27.3920   -10.8450 c3         1 RCK       0.287100
      8 C10         -6.7780   -26.9330    -9.1600 ca         1 RCK       0.459900
      9 C11         -8.0920   -27.0610    -8.6510 ca         1 RCK      -0.402900
     10 C12         -8.3600   -26.3330    -7.4930 ca         1 RCK       0.170500
     11 C15        -11.3850   -24.9140    -6.6140 c3         1 RCK      -0.052100
     12 C16        -12.1070   -24.2700    -5.4650 ca         1 RCK      -0.084300
     13 C17        -11.6660   -23.0580    -4.9390 ca         1 RCK      -0.107000
     14 C18        -12.3020   -22.4820    -3.8470 ca         1 RCK      -0.110000
     15 C19        -13.3910   -23.1140    -3.2630 ca         1 RCK      -0.108000
     16 C20        -13.8410   -24.3220    -3.7800 ca         1 RCK      -0.110000
     17 C21        -13.2030   -24.8940    -4.8720 ca         1 RCK      -0.107000
     18 C23         -9.3120   -27.7070    -8.9520 cc         1 RCK       0.389800
     19 C25         -6.3130   -25.5320    -7.4000 ca         1 RCK       0.321300
     20 C27         -5.8080   -23.9040    -5.1860 c3         1 RCK       0.303800
     21 C29         -7.8110   -22.6230    -4.6540 c6         1 RCK       0.134300
     22 C30         -7.4780   -22.0100    -3.3030 c6         1 RCK       0.116100
     23 C32         -5.6200   -20.9230    -4.2210 c6         1 RCK       0.116100
     24 C33         -5.9180   -21.5140    -5.5920 c6         1 RCK       0.134300
     25 F01         -2.3860   -27.0300   -11.4210 f          1 RCK      -0.184000
     26 N09         -6.3770   -27.5580   -10.2710 nu         1 RCK      -0.922100
     27 N13         -9.6450   -26.5710    -7.1750 na         1 RCK      -0.024100
     28 N22        -10.2230   -27.3990    -8.0630 nd         1 RCK      -0.528100
     29 N24         -7.4960   -25.5560    -6.8310 nb         1 RCK      -0.241000
     30 N28         -6.6360   -22.7760    -5.4970 n3         1 RCK      -0.715600
     31 N34         -5.9130   -26.1570    -8.5130 nb         1 RCK      -0.285000
     32 O31         -6.8020   -20.7790    -3.4610 os         1 RCK      -0.447000
     33 S26         -5.0070   -24.6160    -6.6630 ss         1 RCK      -0.322300
     34 H1          -0.5860   -28.4380   -10.2220 ha         1 RCK       0.132000
     35 H2          -1.0750   -30.1870    -8.5240 ha         1 RCK       0.117000
     36 H3          -3.4260   -30.6610    -7.8980 ha         1 RCK       0.118000
     37 H4          -5.2600   -29.4020    -8.9420 ha         1 RCK       0.117000
     38 H5          -4.8030   -26.3340   -10.8300 h1         1 RCK       0.071700
     39 H6          -5.1410   -27.6800   -11.8950 h1         1 RCK       0.071700
     40 H7         -10.9490   -26.7710    -5.5820 h1         1 RCK       0.070200
     41 H8          -9.7040   -25.5400    -5.4040 h1         1 RCK       0.070200
     42 H9         -10.8270   -24.1620    -7.1770 hc         1 RCK       0.064700
     43 H10        -12.0960   -25.3760    -7.3020 hc         1 RCK       0.064700
     44 H11        -10.8190   -22.5570    -5.3920 ha         1 RCK       0.114000
     45 H12        -11.9460   -21.5380    -3.4530 ha         1 RCK       0.113500
     46 H13        -13.8890   -22.6670    -2.4120 ha         1 RCK       0.113000
     47 H14        -14.6930   -24.8200    -3.3340 ha         1 RCK       0.113500
     48 H15        -13.5630   -25.8350    -5.2730 ha         1 RCK       0.114000
     49 H16         -9.5470   -28.3750    -9.7680 h4         1 RCK       0.044800
     50 H17         -6.4000   -24.6900    -4.7210 h2         1 RCK       0.069700
     51 H18         -4.9660   -23.6910    -4.5180 h2         1 RCK       0.069700
     52 H20         -8.2980   -23.5920    -4.5240 h1         1 RCK       0.066700
     53 H21         -8.3900   -21.8100    -2.7370 h1         1 RCK       0.047700
     54 H22         -6.8680   -22.7110    -2.7120 h1         1 RCK       0.047700
     55 H23         -4.8960   -21.5550    -3.6850 h1         1 RCK       0.047700
     56 H24         -5.1750   -19.9310    -4.3200 h1         1 RCK       0.047700
     57 H25         -4.9910   -21.6570    -6.1530 h1         1 RCK       0.066700
     58 H26         -6.5300   -20.8100    -6.1650 h1         1 RCK       0.066700
     59 H27         -7.0270   -28.1680   -10.7400 hn         1 RCK       0.502000
     60 C14        -10.4120   -25.9790    -6.1060 c3         1 RCK       0.098600
     61 H19         -8.5200   -21.9740    -5.1770 h1         1 RCK       0.066700
@<TRIPOS>BOND
     1     1     2 ar  
     2     1     6 ar  
     3     1    25 1   
     4     2     3 ar  
     5     2    34 1   
     6     3     4 ar  
     7     3    35 1   
     8     4     5 ar  
     9     4    36 1   
    10     5     6 ar  
    11     5    37 1   
    12     6     7 1   
    13     7    26 1   
    14     7    38 1   
    15     7    39 1   
    16     8     9 ar  
    17     8    26 1   
    18     8    31 ar  
    19     9    10 ar  
    20     9    18 1   
    21    10    27 1   
    22    10    29 ar  
    23    11    12 1   
    24    11    42 1   
    25    11    43 1   
    26    11    60 1   
    27    12    13 ar  
    28    12    17 ar  
    29    13    14 ar  
    30    13    44 1   
    31    14    15 ar  
    32    14    45 1   
    33    15    16 ar  
    34    15    46 1   
    35    16    17 ar  
    36    16    47 1   
    37    17    48 1   
    38    18    28 2   
    39    18    49 1   
    40    19    29 ar  
    41    19    31 ar  
    42    19    33 1   
    43    20    30 1   
    44    20    33 1   
    45    20    50 1   
    46    20    51 1   
    47    21    22 1   
    48    21    30 1   
    49    21    52 1   
    50    21    61 1   
    51    22    32 1   
    52    22    53 1   
    53    22    54 1   
    54    23    24 1   
    55    23    32 1   
    56    23    55 1   
    57    23    56 1   
    58    24    30 1   
    59    24    57 1   
    60    24    58 1   
    61    26    59 1   
    62    27    28 1   
    63    27    60 1   
    64    40    60 1   
    65    41    60 1   
@<TRIPOS>SUBSTRUCTURE
     1 RCK         1 TEMP              0 ****  ****    0 ROOT
