@<TRIPOS>MOLECULE
RCL
   54    53     1     0     0
SMALL
abcg2


@<TRIPOS>ATOM
      1 O1           1.1990     0.4060   -10.1160 o          1 RCL      -0.744500
      2 C1           1.4490     0.1430    -8.9190 c          1 RCL       0.716000
      3 O2           2.5340    -0.2770    -8.4700 o          1 RCL      -0.744500
      4 C2           0.2970     0.3740    -7.9260 c3         1 RCL      -0.203400
      5 C3           0.5640    -0.0140    -6.4820 c3         1 RCL      -0.053400
      6 C4          -0.6290     0.2600    -5.5730 c3         1 RCL      -0.079400
      7 C5          -0.3920    -0.1310    -4.1200 c3         1 RCL      -0.074400
      8 C6          -1.5910     0.1560    -3.2240 c3         1 RCL      -0.076400
      9 C7          -1.3800    -0.2550    -1.7730 c3         1 RCL      -0.071400
     10 C8          -2.5850     0.0710    -0.8900 c3         1 RCL      -0.044200
     11 C9          -2.4320    -0.4240     0.5130 c2         1 RCL      -0.196200
     12 C10         -2.3590     0.3480     1.5920 c2         1 RCL      -0.228200
     13 C11         -2.1990    -0.1440     2.9940 c3         1 RCL      -0.070200
     14 C12         -0.8550     0.2430     3.6180 c3         1 RCL       0.170300
     15 O12          0.2290    -0.2730     2.8730 oh         1 RCL      -0.647000
     16 C13         -0.7970    -0.1690     5.0860 c3         1 RCL      -0.108400
     17 C14          0.5040     0.1960     5.7900 c3         1 RCL      -0.070400
     18 C15          0.4800    -0.1460     7.2750 c3         1 RCL      -0.075400
     19 C16          1.7800     0.1910     7.9930 c3         1 RCL      -0.076400
     20 C17          1.7460    -0.1320     9.4820 c3         1 RCL      -0.075400
     21 C18          3.0520     0.1990    10.1900 c3         1 RCL      -0.088100
     22 H21         -0.5850    -0.1630    -8.2940 hc         1 RCL       0.014200
     23 H22          0.0190     1.4340    -7.9740 hc         1 RCL       0.014200
     24 H31          1.4370     0.5280    -6.1060 hc         1 RCL       0.037700
     25 H32          0.8240    -1.0750    -6.4240 hc         1 RCL       0.037700
     26 H41         -1.5060    -0.2770    -5.9520 hc         1 RCL       0.023200
     27 H42         -0.8860     1.3250    -5.6230 hc         1 RCL       0.023200
     28 H51          0.4850     0.4020    -3.7370 hc         1 RCL       0.034700
     29 H52         -0.1450    -1.1970    -4.0660 hc         1 RCL       0.034700
     30 H61         -2.4710    -0.3630    -3.6200 hc         1 RCL       0.031700
     31 H62         -1.8260     1.2250    -3.2690 hc         1 RCL       0.031700
     32 H71         -0.4940     0.2460    -1.3700 hc         1 RCL       0.040200
     33 H72         -1.1710    -1.3290    -1.7240 hc         1 RCL       0.040200
     34 H81         -3.4780    -0.3800    -1.3380 hc         1 RCL       0.041200
     35 H82         -2.7520     1.1520    -0.8870 hc         1 RCL       0.041200
     36 H9          -2.3700    -1.5040     0.6360 ha         1 RCL       0.159000
     37 H10         -2.4110     1.4280     1.4670 ha         1 RCL       0.168000
     38 H111        -2.3140    -1.2340     3.0290 hc         1 RCL       0.042200
     39 H112        -2.9950     0.2720     3.6200 hc         1 RCL       0.042200
     40 H12         -0.7480     1.3320     3.5620 h1         1 RCL       0.071700
     41 HO12         0.1500    -1.2320     2.8550 ho         1 RCL       0.436000
     42 H131        -0.9700    -1.2490     5.1690 hc         1 RCL       0.037700
     43 H132        -1.6340     0.3100     5.6050 hc         1 RCL       0.037700
     44 H141         0.6970     1.2680     5.6700 hc         1 RCL       0.046700
     45 H142         1.3420    -0.3200     5.3120 hc         1 RCL       0.046700
     46 H151         0.2650    -1.2140     7.3970 hc         1 RCL       0.033200
     47 H152        -0.3480     0.3850     7.7560 hc         1 RCL       0.033200
     48 H161         2.0060     1.2550     7.8600 hc         1 RCL       0.039200
     49 H162         2.6070    -0.3530     7.5230 hc         1 RCL       0.039200
     50 H171         1.5130    -1.1930     9.6160 hc         1 RCL       0.034700
     51 H172         0.9240     0.4180     9.9500 hc         1 RCL       0.034700
     52 H181         3.0070    -0.0460    11.2520 hc         1 RCL       0.030700
     53 H182         3.8860    -0.3570     9.7570 hc         1 RCL       0.030700
     54 H183         3.2880     1.2610    10.1070 hc         1 RCL       0.030700
@<TRIPOS>BOND
     1     1     2 1   
     2     2     3 1   
     3     2     4 1   
     4     4     5 1   
     5     4    22 1   
     6     4    23 1   
     7     5     6 1   
     8     5    24 1   
     9     5    25 1   
    10     6     7 1   
    11     6    26 1   
    12     6    27 1   
    13     7     8 1   
    14     7    28 1   
    15     7    29 1   
    16     8     9 1   
    17     8    30 1   
    18     8    31 1   
    19     9    10 1   
    20     9    32 1   
    21     9    33 1   
    22    10    11 1   
    23    10    34 1   
    24    10    35 1   
    25    11    12 2   
    26    11    36 1   
    27    12    13 1   
    28    12    37 1   
    29    13    14 1   
    30    13    38 1   
    31    13    39 1   
    32    14    15 1   
    33    14    16 1   
    34    14    40 1   
    35    15    41 1   
    36    16    17 1   
    37    16    42 1   
    38    16    43 1   
    39    17    18 1   
    40    17    44 1   
    41    17    45 1   
    42    18    19 1   
    43    18    46 1   
    44    18    47 1   
    45    19    20 1   
    46    19    48 1   
    47    19    49 1   
    48    20    21 1   
    49    20    50 1   
    50    20    51 1   
    51    21    52 1   
    52    21    53 1   
    53    21    54 1   
@<TRIPOS>SUBSTRUCTURE
     1 RCL         1 TEMP              0 ****  ****    0 ROOT
