@<TRIPOS>MOLECULE
RCL
   54    53     1     0     0
SMALL
No Charge or Current Charge


@<TRIPOS>ATOM
      1 O1           1.7740    -1.0780    -9.2380 o          1 RCL      -0.744500
      2 C1           1.7600     0.0160    -8.6950 c          1 RCL       0.716000
      3 O2           2.7040     0.7910    -8.7130 o          1 RCL      -0.744500
      4 C2           0.5070     0.4150    -7.8940 c3         1 RCL      -0.203400
      5 C3           0.6360    -0.0610    -6.4270 c3         1 RCL      -0.053400
      6 C4          -0.5890     0.3040    -5.5590 c3         1 RCL      -0.079400
      7 C5          -0.4580    -0.1730    -4.0950 c3         1 RCL      -0.074400
      8 C6          -1.6830     0.1920    -3.2280 c3         1 RCL      -0.076400
      9 C7          -1.5520    -0.2840    -1.7650 c3         1 RCL      -0.071400
     10 C8          -2.7750     0.0790    -0.8970 c3         1 RCL      -0.044200
     11 C9          -2.6220    -0.3960     0.5320 c2         1 RCL      -0.196200
     12 C10         -2.5340     0.4010     1.6080 c2         1 RCL      -0.228200
     13 C11         -2.3890    -0.0760     3.0420 c3         1 RCL      -0.070200
     14 C12         -1.0200     0.2950     3.6560 c3         1 RCL       0.170300
     15 O12          0.0070    -0.2570     2.8270 oh         1 RCL      -0.647000
     16 C13         -0.8570    -0.2210     5.1070 c3         1 RCL      -0.108400
     17 C14          0.4490     0.2380     5.7990 c3         1 RCL      -0.070400
     18 C15          0.5620    -0.2530     7.2590 c3         1 RCL      -0.075400
     19 C16          1.8650     0.2040     7.9520 c3         1 RCL      -0.076400
     20 C17          1.9780    -0.2870     9.4120 c3         1 RCL      -0.075400
     21 C18          3.2770     0.1700    10.1030 c3         1 RCL      -0.088100
     22 H21         -0.3820    -0.0890    -8.2960 hc         1 RCL       0.014200
     23 H22          0.4120     1.5070    -7.8480 hc         1 RCL       0.014200
     24 H31          1.5360     0.3810    -5.9820 hc         1 RCL       0.037700
     25 H32          0.7750    -1.1500    -6.4120 hc         1 RCL       0.037700
     26 H41         -1.4900    -0.1400    -6.0010 hc         1 RCL       0.023200
     27 H42         -0.7280     1.3920    -5.5710 hc         1 RCL       0.023200
     28 H51          0.4420     0.2710    -3.6510 hc         1 RCL       0.034700
     29 H52         -0.3190    -1.2610    -4.0820 hc         1 RCL       0.034700
     30 H61         -2.5830    -0.2510    -3.6720 hc         1 RCL       0.031700
     31 H62         -1.8220     1.2810    -3.2420 hc         1 RCL       0.031700
     32 H71         -0.6530     0.1600    -1.3190 hc         1 RCL       0.040200
     33 H72         -1.4120    -1.3720    -1.7500 hc         1 RCL       0.040200
     34 H81         -3.6760    -0.3640    -1.3380 hc         1 RCL       0.041200
     35 H82         -2.9190     1.1670    -0.9230 hc         1 RCL       0.041200
     36 H9          -2.5930    -1.4830     0.6440 ha         1 RCL       0.159000
     37 H10         -2.5720     1.4880     1.4950 ha         1 RCL       0.168000
     38 H111        -2.5220    -1.1650     3.0950 hc         1 RCL       0.042200
     39 H112        -3.1860     0.3600     3.6560 hc         1 RCL       0.042200
     40 H12         -0.9430     1.3930     3.6690 h1         1 RCL       0.071700
     41 HO12        -0.3560    -0.2360     1.9140 ho         1 RCL       0.436000
     42 H131        -0.9040    -1.3170     5.1100 hc         1 RCL       0.037700
     43 H132        -1.7100     0.1310     5.7020 hc         1 RCL       0.037700
     44 H141         0.4990     1.3340     5.7830 hc         1 RCL       0.046700
     45 H142         1.3120    -0.1300     5.2310 hc         1 RCL       0.046700
     46 H151         0.5120    -1.3490     7.2750 hc         1 RCL       0.033200
     47 H152        -0.2980     0.1160     7.8310 hc         1 RCL       0.033200
     48 H161         1.9160     1.3000     7.9360 hc         1 RCL       0.039200
     49 H162         2.7260    -0.1650     7.3800 hc         1 RCL       0.039200
     50 H171         1.9300    -1.3820     9.4320 hc         1 RCL       0.034700
     51 H172         1.1200     0.0820     9.9870 hc         1 RCL       0.034700
     52 H181         3.3120    -0.2020    11.1340 hc         1 RCL       0.030700
     53 H182         4.1560    -0.2130     9.5700 hc         1 RCL       0.030700
     54 H183         3.3390     1.2640    10.1310 hc         1 RCL       0.030700
@<TRIPOS>BOND
     1     1     2 1   
     2     2     3 1   
     3     2     4 1   
     4     4     5 1   
     5     4    22 1   
     6     4    23 1   
     7     5     6 1   
     8     5    24 1   
     9     5    25 1   
    10     6     7 1   
    11     6    26 1   
    12     6    27 1   
    13     7     8 1   
    14     7    28 1   
    15     7    29 1   
    16     8     9 1   
    17     8    30 1   
    18     8    31 1   
    19     9    10 1   
    20     9    32 1   
    21     9    33 1   
    22    10    11 1   
    23    10    34 1   
    24    10    35 1   
    25    11    12 2   
    26    11    36 1   
    27    12    13 1   
    28    12    37 1   
    29    13    14 1   
    30    13    38 1   
    31    13    39 1   
    32    14    15 1   
    33    14    16 1   
    34    14    40 1   
    35    15    41 1   
    36    16    17 1   
    37    16    42 1   
    38    16    43 1   
    39    17    18 1   
    40    17    44 1   
    41    17    45 1   
    42    18    19 1   
    43    18    46 1   
    44    18    47 1   
    45    19    20 1   
    46    19    48 1   
    47    19    49 1   
    48    20    21 1   
    49    20    50 1   
    50    20    51 1   
    51    21    52 1   
    52    21    53 1   
    53    21    54 1   
@<TRIPOS>SUBSTRUCTURE
     1 RCL         1 TEMP              0 ****  ****    0 ROOT
