@<TRIPOS>MOLECULE
RCM
   31    33     1     0     0
SMALL
abcg2


@<TRIPOS>ATOM
      1 O2          -3.9820    -2.0670    -1.2010 o          1 RCM      -0.548000
      2 C14         -3.4630    -1.0700    -0.7490 c          1 RCM       0.613000
      3 N3          -4.1650     0.0160    -0.2150 n          1 RCM      -0.388400
      4 C17         -5.6060     0.0630    -0.1480 c3         1 RCM       0.103300
      5 C12         -3.3260     1.0050     0.1960 c          1 RCM       0.558000
      6 O1          -3.6430     2.0610     0.6910 o          1 RCM      -0.507000
      7 N2          -2.1550    -0.7700    -0.6530 ns         1 RCM      -0.519900
      8 C11         -1.9130     0.5180    -0.0650 c5         1 RCM       0.024700
      9 C10         -1.0820     0.4570     1.2220 c3         1 RCM      -0.001200
     10 C7           0.2760    -0.1040     0.9740 cc         1 RCM      -0.156400
     11 C2           1.3800     0.5690     0.3560 ca         1 RCM      -0.090800
     12 C8           0.7030    -1.3740     1.2390 cd         1 RCM      -0.146100
     13 N1           1.9980    -1.5320     0.8340 na         1 RCM      -0.209700
     14 C3           2.4370    -0.3650     0.2920 ca         1 RCM      -0.046200
     15 C4           3.6690    -0.0160    -0.2540 ca         1 RCM       0.102000
     16 CL1          4.9370    -1.1930    -0.3080 cl         1 RCM      -0.206000
     17 C5           3.8510     1.2620    -0.7370 ca         1 RCM      -0.079000
     18 C6           2.8030     2.1940    -0.6750 ca         1 RCM      -0.131000
     19 C1           1.5760     1.8640    -0.1370 ca         1 RCM      -0.061000
     20 H1          -6.0370     0.3350    -1.1100 h1         1 RCM       0.053700
     21 H2          -5.9960    -0.9060     0.1530 h1         1 RCM       0.053700
     22 H3          -5.9010     0.8020     0.5920 h1         1 RCM       0.053700
     23 H4          -1.4310    -1.3850    -0.9860 hn         1 RCM       0.355500
     24 H5          -1.4350     1.1950    -0.7820 h1         1 RCM       0.088700
     25 H6          -1.0120     1.4690     1.6300 hc         1 RCM       0.067200
     26 H7          -1.6110    -0.1500     1.9600 hc         1 RCM       0.067200
     27 H8           0.1720    -2.1920     1.7020 h4         1 RCM       0.219000
     28 H9           2.5360    -2.3760     0.9340 hn         1 RCM       0.363000
     29 H10          4.8030     1.5460    -1.1630 ha         1 RCM       0.129000
     30 H11          2.9740     3.1910    -1.0600 ha         1 RCM       0.119000
     31 H12          0.7810     2.5990    -0.0950 ha         1 RCM       0.120000
@<TRIPOS>BOND
     1     1     2 2   
     2     2     3 1   
     3     2     7 1   
     4     3     4 1   
     5     3     5 1   
     6     4    20 1   
     7     4    21 1   
     8     4    22 1   
     9     5     6 2   
    10     5     8 1   
    11     7     8 1   
    12     7    23 1   
    13     8     9 1   
    14     8    24 1   
    15     9    10 1   
    16     9    25 1   
    17     9    26 1   
    18    10    11 1   
    19    10    12 2   
    20    11    14 ar  
    21    11    19 ar  
    22    12    13 1   
    23    12    27 1   
    24    13    14 1   
    25    13    28 1   
    26    14    15 ar  
    27    15    16 1   
    28    15    17 ar  
    29    17    18 ar  
    30    17    29 1   
    31    18    19 ar  
    32    18    30 1   
    33    19    31 1   
@<TRIPOS>SUBSTRUCTURE
     1 RCM         1 TEMP              0 ****  ****    0 ROOT
