@<TRIPOS>MOLECULE
RCM
   31    33     1     0     0
SMALL
No Charge or Current Charge


@<TRIPOS>ATOM
      1 O2          -4.0230    -2.0120    -1.2880 o          1 RCM      -0.548000
      2 C14         -3.5140    -1.0210    -0.7980 c          1 RCM       0.613000
      3 N3          -4.1630     0.0580    -0.2530 n          1 RCM      -0.388400
      4 C17         -5.6350     0.1520    -0.1950 c3         1 RCM       0.103300
      5 C12         -3.3330     1.0490     0.2390 c          1 RCM       0.558000
      6 O1          -3.6930     2.0890     0.7750 o          1 RCM      -0.507000
      7 N2          -2.1780    -0.7860    -0.6980 ns         1 RCM      -0.519900
      8 C11         -1.8940     0.5160    -0.0490 c5         1 RCM       0.024700
      9 C10         -1.0610     0.3910     1.2470 c3         1 RCM      -0.001200
     10 C7           0.3200    -0.1640     1.0130 cc         1 RCM      -0.156400
     11 C2           1.4130     0.5010     0.3610 ca         1 RCM      -0.090800
     12 C8           0.7920    -1.4260     1.3610 cd         1 RCM      -0.146100
     13 N1           2.1380    -1.5620     0.9430 na         1 RCM      -0.209700
     14 C3           2.4730    -0.3620     0.3380 ca         1 RCM      -0.046200
     15 C4           3.6990     0.0050    -0.2400 ca         1 RCM       0.102000
     16 Cl1          5.0620    -1.1100    -0.2690 cl         1 RCM      -0.206000
     17 C5           3.8160     1.2950    -0.7990 ca         1 RCM      -0.079000
     18 C6           2.7170     2.1870    -0.7690 ca         1 RCM      -0.131000
     19 C1           1.4960     1.7920    -0.1820 ca         1 RCM      -0.061000
     20 H1          -6.0090     0.6390    -1.1050 h1         1 RCM       0.053700
     21 H2          -6.0780    -0.8500    -0.1180 h1         1 RCM       0.053700
     22 H3          -5.9460     0.7380     0.6790 h1         1 RCM       0.053700
     23 H4          -1.5110    -1.4720    -1.0320 hn         1 RCM       0.355500
     24 H5          -1.4080     1.2160    -0.7410 h1         1 RCM       0.088700
     25 H6          -0.9750     1.3760     1.7230 hc         1 RCM       0.067200
     26 H7          -1.5930    -0.2440     1.9670 hc         1 RCM       0.067200
     27 H8           0.2680    -2.2340     1.8670 h4         1 RCM       0.219000
     28 H9           2.7390    -2.3730     1.0600 hn         1 RCM       0.363000
     29 H10          4.7550     1.6040    -1.2520 ha         1 RCM       0.129000
     30 H11          2.8140     3.1810    -1.1990 ha         1 RCM       0.119000
     31 H12          0.6480     2.4720    -0.1500 ha         1 RCM       0.120000
@<TRIPOS>BOND
     1     1     2 2   
     2     2     3 1   
     3     2     7 1   
     4     3     4 1   
     5     3     5 1   
     6     4    20 1   
     7     4    21 1   
     8     4    22 1   
     9     5     6 2   
    10     5     8 1   
    11     7     8 1   
    12     7    23 1   
    13     8     9 1   
    14     8    24 1   
    15     9    10 1   
    16     9    25 1   
    17     9    26 1   
    18    10    11 1   
    19    10    12 2   
    20    11    14 ar  
    21    11    19 ar  
    22    12    13 1   
    23    12    27 1   
    24    13    14 1   
    25    13    28 1   
    26    14    15 ar  
    27    15    16 1   
    28    15    17 ar  
    29    17    18 ar  
    30    17    29 1   
    31    18    19 ar  
    32    18    30 1   
    33    19    31 1   
@<TRIPOS>SUBSTRUCTURE
     1 RCM         1 TEMP              0 ****  ****    0 ROOT
