@<TRIPOS>MOLECULE
RCN
   20    21     1     0     0
SMALL
No Charge or Current Charge


@<TRIPOS>ATOM
      1 C1          -9.4370    31.7030   -30.9720 ca         1 RCN      -0.053000
      2 C2         -10.2590    32.8340   -30.8690 ca         1 RCN      -0.180000
      3 C3         -11.5480    32.8450   -31.4280 ca         1 RCN       0.310000
      4 C4         -12.0560    31.6900   -32.0850 ca         1 RCN      -0.170500
      5 C5         -11.1950    30.5650   -32.2000 ca         1 RCN      -0.038000
      6 C6          -9.9060    30.5710   -31.6470 ca         1 RCN       0.071000
      7 C7         -13.4170    31.5880   -32.6680 cc         1 RCN       0.263500
      8 C8         -14.5060    32.4770   -32.5270 cc         1 RCN       0.203900
      9 N10        -15.0870    30.9130   -33.7670 na         1 RCN       0.116600
     10 N11        -13.7690    30.5880   -33.4530 nd         1 RCN      -0.498800
     11 N12        -12.2360    34.0230   -31.3340 nv         1 RCN      -1.068000
     12 N9         -15.5660    32.0870   -33.1980 nd         1 RCN      -0.501800
     13 Cl1         -8.8790    29.1500   -31.7950 cl         1 RCN      -0.205000
     14 H1          -8.4380    31.7070   -30.5410 ha         1 RCN       0.128000
     15 H2          -9.8770    33.7170   -30.3620 ha         1 RCN       0.117000
     16 H3         -11.5260    29.6600   -32.7030 ha         1 RCN       0.139000
     17 H4         -14.5810    33.3820   -31.9440 h4         1 RCN       0.061100
     18 H5         -15.6650    30.3250   -34.3760 hn         1 RCN       0.401000
     19 H6         -11.7520    34.8260   -30.9340 hn         1 RCN       0.452000
     20 H7         -12.9300    34.2470   -32.0410 hn         1 RCN       0.452000
@<TRIPOS>BOND
     1     1     2 ar  
     2     1     6 ar  
     3     1    14 1   
     4     2     3 ar  
     5     2    15 1   
     6     3     4 ar  
     7     3    11 1   
     8     4     5 ar  
     9     4     7 1   
    10     5     6 ar  
    11     5    16 1   
    12     6    13 1   
    13     7     8 1   
    14     7    10 2   
    15     8    12 2   
    16     8    17 1   
    17     9    10 1   
    18     9    12 1   
    19     9    18 1   
    20    11    19 1   
    21    11    20 1   
@<TRIPOS>SUBSTRUCTURE
     1 RCN         1 TEMP              0 ****  ****    0 ROOT
