@<TRIPOS>MOLECULE
RCN
   20    21     1     0     0
SMALL
abcg2


@<TRIPOS>ATOM
      1 C1          -9.4620    31.6980   -30.9850 ca         1 RCN      -0.053000
      2 C2         -10.2250    32.8490   -30.9590 ca         1 RCN      -0.180000
      3 C3         -11.5130    32.8920   -31.5090 ca         1 RCN       0.310000
      4 C4         -12.0320    31.7150   -32.0820 ca         1 RCN      -0.170500
      5 C5         -11.2480    30.5630   -32.1170 ca         1 RCN      -0.038000
      6 C6          -9.9770    30.5550   -31.5770 ca         1 RCN       0.071000
      7 C7         -13.3810    31.6610   -32.6480 cc         1 RCN       0.263500
      8 C8         -14.5790    32.2670   -32.2330 cc         1 RCN       0.203900
      9 N10        -14.9540    31.0520   -33.8640 na         1 RCN       0.116600
     10 N11        -13.6710    30.8950   -33.6960 nd         1 RCN      -0.498800
     11 N12        -12.2490    34.0540   -31.4410 nv         1 RCN      -1.068000
     12 N9         -15.5520    31.8560   -33.0280 nd         1 RCN      -0.501800
     13 CL1         -9.0270    29.1020   -31.6310 cl         1 RCN      -0.205000
     14 H1          -8.4700    31.6980   -30.5520 ha         1 RCN       0.128000
     15 H2          -9.8130    33.7450   -30.5110 ha         1 RCN       0.117000
     16 H3         -11.6530    29.6620   -32.5590 ha         1 RCN       0.139000
     17 H4         -14.7670    32.9420   -31.4150 h4         1 RCN       0.061100
     18 H5         -15.4530    30.5870   -34.6080 hn         1 RCN       0.401000
     19 H6         -11.7150    34.8810   -31.2270 hn         1 RCN       0.452000
     20 H7         -12.8890    34.2240   -32.2020 hn         1 RCN       0.452000
@<TRIPOS>BOND
     1     1     2 ar  
     2     1     6 ar  
     3     1    14 1   
     4     2     3 ar  
     5     2    15 1   
     6     3     4 ar  
     7     3    11 1   
     8     4     5 ar  
     9     4     7 1   
    10     5     6 ar  
    11     5    16 1   
    12     6    13 1   
    13     7     8 1   
    14     7    10 2   
    15     8    12 2   
    16     8    17 1   
    17     9    10 1   
    18     9    12 1   
    19     9    18 1   
    20    11    19 1   
    21    11    20 1   
@<TRIPOS>SUBSTRUCTURE
     1 RCN         1 TEMP              0 ****  ****    0 ROOT
