@<TRIPOS>MOLECULE
RCO
   14    14     1     0     0
SMALL
abcg2


@<TRIPOS>ATOM
      1 C1          -0.3570     0.0860     1.1940 ca         1 RCO       0.158600
      2 C2          -1.0720    -0.0230     0.0090 ca         1 RCO      -0.170000
      3 C3          -0.3940    -0.1140    -1.2060 ca         1 RCO       0.158600
      4 C4           0.9970    -0.0870    -1.2290 ca         1 RCO      -0.219500
      5 C5           1.6940     0.0110    -0.0330 ca         1 RCO      -0.044000
      6 C6           1.0350     0.0800     1.1850 ca         1 RCO      -0.219500
      7 O1          -1.0620     0.1360     2.3590 oh         1 RCO      -0.540600
      8 O3          -1.1390    -0.2240    -2.3240 oh         1 RCO      -0.540600
      9 H2          -2.1550    -0.0370     0.0340 ha         1 RCO       0.142000
     10 H4           1.5350    -0.1340    -2.1680 ha         1 RCO       0.117000
     11 H5           2.7770     0.0100    -0.0570 ha         1 RCO       0.113000
     12 H6           1.5950     0.1920     2.1060 ha         1 RCO       0.117000
     13 H1          -0.6920     0.8100     2.9400 ho         1 RCO       0.464500
     14 H3          -0.5780    -0.3980    -3.0870 ho         1 RCO       0.464500
@<TRIPOS>BOND
     1     1     2 ar  
     2     1     6 ar  
     3     1     7 1   
     4     2     3 ar  
     5     2     9 1   
     6     3     4 ar  
     7     3     8 1   
     8     4     5 ar  
     9     4    10 1   
    10     5     6 ar  
    11     5    11 1   
    12     6    12 1   
    13     7    13 1   
    14     8    14 1   
@<TRIPOS>SUBSTRUCTURE
     1 RCO         1 TEMP              0 ****  ****    0 ROOT
