@<TRIPOS>MOLECULE
RCO
   14    14     1     0     0
SMALL
No Charge or Current Charge


@<TRIPOS>ATOM
      1 C1          -0.4150     0.1690     1.1890 ca         1 RCO       0.158600
      2 C2          -1.1240     0.0060    -0.0100 ca         1 RCO      -0.170000
      3 C3          -0.4300    -0.1390    -1.2190 ca         1 RCO       0.158600
      4 C4           0.9740    -0.1220    -1.2330 ca         1 RCO      -0.219500
      5 C5           1.6860     0.0410    -0.0320 ca         1 RCO      -0.044000
      6 C6           0.9890     0.1870     1.1810 ca         1 RCO      -0.219500
      7 O1          -1.0930     0.3090     2.3610 oh         1 RCO      -0.540600
      8 O3          -1.1220    -0.2970    -2.3810 oh         1 RCO      -0.540600
      9 H2          -2.2100    -0.0080    -0.0020 ha         1 RCO       0.142000
     10 H4           1.5190    -0.2340    -2.1670 ha         1 RCO       0.117000
     11 H5           2.7750     0.0550    -0.0400 ha         1 RCO       0.113000
     12 H6           1.5450     0.3120     2.1060 ha         1 RCO       0.117000
     13 H1          -0.4370     0.4100     3.0840 ho         1 RCO       0.464500
     14 H3          -0.4750    -0.3820    -3.1140 ho         1 RCO       0.464500
@<TRIPOS>BOND
     1     1     2 ar  
     2     1     6 ar  
     3     1     7 1   
     4     2     3 ar  
     5     2     9 1   
     6     3     4 ar  
     7     3     8 1   
     8     4     5 ar  
     9     4    10 1   
    10     5     6 ar  
    11     5    11 1   
    12     6    12 1   
    13     7    13 1   
    14     8    14 1   
@<TRIPOS>SUBSTRUCTURE
     1 RCO         1 TEMP              0 ****  ****    0 ROOT
