@<TRIPOS>MOLECULE
RCP
   71    76     1     0     0
SMALL
abcg2


@<TRIPOS>ATOM
      1 C29          1.0600    -1.1310    -0.1370 c6         1 RCP       0.058000
      2 C30          0.2400    -2.3300     0.3090 c6         1 RCP       0.137600
      3 O28         -0.0660    -2.2740     1.6810 os         1 RCP      -0.442000
      4 C28         -0.7880    -1.1010     1.9850 c6         1 RCP       0.137600
      5 C27         -0.0130     0.1500     1.6130 c6         1 RCP       0.058000
      6 N26          0.3690     0.1000     0.2100 n          1 RCP      -0.415800
      7 C26          0.2250     1.1900    -0.5810 c          1 RCP       0.610100
      8 O26         -0.2780     2.2240    -0.1620 o          1 RCP      -0.602100
      9 C25          0.6610     1.0710    -2.0330 c6         1 RCP      -0.139700
     10 C24         -0.4260     0.3330    -2.8240 c6         1 RCP       0.170800
     11 C23          0.9360     2.4250    -2.6690 c6         1 RCP      -0.064400
     12 C22          1.2800     2.2090    -4.1350 c6         1 RCP      -0.079400
     13 C21          0.1980     1.4080    -4.8430 c6         1 RCP       0.163800
     14 N20         -0.0170     0.1170    -4.2010 n3         1 RCP      -0.725600
     15 C20         -0.9370    -0.7380    -4.9560 c6         1 RCP       0.193500
     16 C19         -1.2520    -2.0410    -4.2150 c6         1 RCP      -0.098400
     17 C18         -2.1110    -2.9790    -5.0500 c6         1 RCP       0.096000
     18 C17         -0.3400    -1.0990    -6.3220 c6         1 RCP      -0.098400
     19 C16         -1.2220    -2.0600    -7.1060 c6         1 RCP       0.096000
     20 N15         -1.4970    -3.2560    -6.3340 n          1 RCP      -0.404800
     21 C15         -1.1670    -4.5030    -6.7010 c          1 RCP       0.617700
     22 O15         -1.3540    -5.4920    -6.0030 o          1 RCP      -0.592100
     23 C14         -0.5490    -4.6800    -8.0600 ca         1 RCP      -0.122600
     24 C1           0.8430    -4.7430    -8.1790 ca         1 RCP      -0.003000
     25 C2           1.7200    -4.5040    -7.0790 ca         1 RCP      -0.102000
     26 C3           3.0700    -4.5610    -7.2370 ca         1 RCP      -0.101000
     27 C4           3.6410    -4.8650    -8.5020 ca         1 RCP      -0.106500
     28 C5           2.8400    -5.0960    -9.5750 ca         1 RCP      -0.097000
     29 C6           1.4210    -5.0380    -9.4540 ca         1 RCP      -0.039500
     30 C7           0.5920    -5.2600   -10.5480 ca         1 RCP      -0.073000
     31 C8          -0.7930    -5.1900   -10.4340 ca         1 RCP      -0.039500
     32 C13         -1.3810    -4.8930    -9.1640 ca         1 RCP      -0.003000
     33 C12         -2.8030    -4.8180    -9.0790 ca         1 RCP      -0.102000
     34 C11         -3.5800    -5.0300   -10.1760 ca         1 RCP      -0.101000
     35 C10         -2.9940    -5.3330   -11.4340 ca         1 RCP      -0.106500
     36 C9          -1.6420    -5.4100   -11.5570 ca         1 RCP      -0.097000
     37 H291         2.0430    -1.1490     0.3470 h1         1 RCP       0.062450
     38 H292         1.2260    -1.2120    -1.2070 h1         1 RCP       0.062450
     39 H301        -0.6810    -2.3790    -0.2900 h1         1 RCP       0.053450
     40 H302         0.8070    -3.2450     0.1330 h1         1 RCP       0.053450
     41 H281        -0.9830    -1.1050     3.0580 h1         1 RCP       0.053450
     42 H282        -1.7550    -1.0990     1.4630 h1         1 RCP       0.053450
     43 H271        -0.6290     1.0250     1.7970 h1         1 RCP       0.062450
     44 H272         0.8860     0.2330     2.2340 h1         1 RCP       0.062450
     45 H25          1.5790     0.4800    -2.1000 hc         1 RCP       0.070700
     46 H241        -0.6200    -0.6240    -2.3440 h1         1 RCP       0.039200
     47 H242        -1.3660     0.9090    -2.7620 h1         1 RCP       0.039200
     48 H231         1.7480     2.9410    -2.1510 hc         1 RCP       0.057200
     49 H232         0.0500     3.0590    -2.5900 hc         1 RCP       0.057200
     50 H221         1.4050     3.1670    -4.6440 hc         1 RCP       0.048200
     51 H222         2.2330     1.6770    -4.2190 hc         1 RCP       0.048200
     52 H211        -0.7360     1.9980    -4.8590 h1         1 RCP       0.033200
     53 H212         0.4980     1.2640    -5.8790 h1         1 RCP       0.033200
     54 H20         -1.8950    -0.2130    -5.1330 h1         1 RCP       0.023700
     55 H191        -1.8070    -1.8550    -3.2940 hc         1 RCP       0.055700
     56 H192        -0.3170    -2.5400    -3.9390 hc         1 RCP       0.055700
     57 H171         0.6480    -1.5470    -6.1700 hc         1 RCP       0.055700
     58 H172        -0.2030    -0.2170    -6.9460 hc         1 RCP       0.055700
     59 H181        -2.2750    -3.9130    -4.5190 h1         1 RCP       0.058200
     60 H182        -3.0910    -2.5260    -5.2270 h1         1 RCP       0.058200
     61 H161        -2.1720    -1.5790    -7.3600 h1         1 RCP       0.058200
     62 H162        -0.7380    -2.3240    -8.0430 h1         1 RCP       0.058200
     63 H2           1.3120    -4.2660    -6.1050 ha         1 RCP       0.121000
     64 H3           3.7200    -4.3720    -6.3930 ha         1 RCP       0.115000
     65 H4           4.7180    -4.9070    -8.6040 ha         1 RCP       0.115000
     66 H5           3.2680    -5.3270   -10.5430 ha         1 RCP       0.114000
     67 H7           1.0330    -5.4930   -11.5110 ha         1 RCP       0.116000
     68 H9          -1.1880    -5.6420   -12.5130 ha         1 RCP       0.114000
     69 H12         -3.2770    -4.5870    -8.1330 ha         1 RCP       0.121000
     70 H11         -4.6570    -4.9700   -10.0930 ha         1 RCP       0.115000
     71 H10         -3.6320    -5.5030   -12.2910 ha         1 RCP       0.115000
@<TRIPOS>BOND
     1     1     2 1   
     2     1     6 1   
     3     1    37 1   
     4     1    38 1   
     5     2     3 1   
     6     2    39 1   
     7     2    40 1   
     8     3     4 1   
     9     4     5 1   
    10     4    41 1   
    11     4    42 1   
    12     5     6 1   
    13     5    43 1   
    14     5    44 1   
    15     6     7 1   
    16     7     8 2   
    17     7     9 1   
    18     9    10 1   
    19     9    11 1   
    20     9    45 1   
    21    10    14 1   
    22    10    46 1   
    23    10    47 1   
    24    11    12 1   
    25    11    48 1   
    26    11    49 1   
    27    12    13 1   
    28    12    50 1   
    29    12    51 1   
    30    13    14 1   
    31    13    52 1   
    32    13    53 1   
    33    14    15 1   
    34    15    16 1   
    35    15    18 1   
    36    15    54 1   
    37    16    17 1   
    38    16    55 1   
    39    16    56 1   
    40    17    20 1   
    41    17    59 1   
    42    17    60 1   
    43    18    19 1   
    44    18    57 1   
    45    18    58 1   
    46    19    20 1   
    47    19    61 1   
    48    19    62 1   
    49    20    21 1   
    50    21    22 2   
    51    21    23 1   
    52    23    24 ar  
    53    23    32 ar  
    54    24    25 ar  
    55    24    29 ar  
    56    25    26 ar  
    57    25    63 1   
    58    26    27 ar  
    59    26    64 1   
    60    27    28 ar  
    61    27    65 1   
    62    28    29 ar  
    63    28    66 1   
    64    29    30 ar  
    65    30    31 ar  
    66    30    67 1   
    67    31    32 ar  
    68    31    36 ar  
    69    32    33 ar  
    70    33    34 ar  
    71    33    69 1   
    72    34    35 ar  
    73    34    70 1   
    74    35    36 ar  
    75    35    71 1   
    76    36    68 1   
@<TRIPOS>SUBSTRUCTURE
     1 RCP         1 TEMP              0 ****  ****    0 ROOT
