@<TRIPOS>MOLECULE
RCP
   71    76     1     0     0
SMALL
No Charge or Current Charge


@<TRIPOS>ATOM
      1 C29          0.9910    -0.9980     0.1250 c6         1 RCP       0.058000
      2 C30          0.7500    -2.1990     1.0770 c6         1 RCP       0.137600
      3 O28          0.5770    -1.7500     2.4320 os         1 RCP      -0.442000
      4 C28         -0.5760    -0.9040     2.5750 c6         1 RCP       0.137600
      5 C27         -0.4090     0.3850     1.7320 c6         1 RCP       0.058000
      6 N26          0.0730     0.1770     0.3260 n          1 RCP      -0.415800
      7 C26          0.0460     1.2710    -0.5800 c          1 RCP       0.610100
      8 O26         -0.4620     2.3330    -0.2400 o          1 RCP      -0.602100
      9 C25          0.5310     1.0840    -2.0380 c6         1 RCP      -0.139700
     10 C24         -0.5020     0.2780    -2.8600 c6         1 RCP       0.170800
     11 C23          0.9700     2.3840    -2.7530 c6         1 RCP      -0.064400
     12 C22          1.4430     2.0460    -4.1800 c6         1 RCP      -0.079400
     13 C21          0.3730     1.2350    -4.9510 c6         1 RCP       0.163800
     14 N20         -0.0120    -0.0320    -4.2440 n3         1 RCP      -0.725600
     15 C20         -1.0010    -0.8590    -5.0330 c6         1 RCP       0.193500
     16 C19         -1.3730    -2.1900    -4.2990 c6         1 RCP      -0.098400
     17 C18         -2.2950    -3.0960    -5.1460 c6         1 RCP       0.096000
     18 C17         -0.4670    -1.2090    -6.4620 c6         1 RCP      -0.098400
     19 C16         -1.4210    -2.1430    -7.2370 c6         1 RCP       0.096000
     20 N15         -1.6830    -3.3760    -6.4620 n          1 RCP      -0.404800
     21 C15         -1.1210    -4.6330    -6.7820 c          1 RCP       0.617700
     22 O15         -1.1600    -5.5720    -5.9970 o          1 RCP      -0.592100
     23 C14         -0.5220    -4.7990    -8.1540 ca         1 RCP      -0.122600
     24 C1           0.8860    -4.8840    -8.3050 ca         1 RCP      -0.003000
     25 C2           1.7560    -4.8090    -7.1900 ca         1 RCP      -0.102000
     26 C3           3.1480    -4.8880    -7.3630 ca         1 RCP      -0.101000
     27 C4           3.6920    -5.0380    -8.6470 ca         1 RCP      -0.106500
     28 C5           2.8430    -5.1040    -9.7620 ca         1 RCP      -0.097000
     29 C6           1.4460    -5.0250    -9.5960 ca         1 RCP      -0.039500
     30 C7           0.6130    -5.0780   -10.7250 ca         1 RCP      -0.073000
     31 C8          -0.7810    -4.9930   -10.5840 ca         1 RCP      -0.039500
     32 C13         -1.3590    -4.8550    -9.3000 ca         1 RCP      -0.003000
     33 C12         -2.7690    -4.7870    -9.1930 ca         1 RCP      -0.102000
     34 C11         -3.5770    -4.8420   -10.3410 ca         1 RCP      -0.101000
     35 C10         -2.9920    -4.9700   -11.6090 ca         1 RCP      -0.106500
     36 C9          -1.5970    -5.0470   -11.7300 ca         1 RCP      -0.097000
     37 H291         2.0280    -0.6550     0.2510 h1         1 RCP       0.062450
     38 H292         0.8980    -1.3790    -0.9000 h1         1 RCP       0.062450
     39 H301        -0.1490    -2.7490     0.7630 h1         1 RCP       0.053450
     40 H302         1.6030    -2.8900     1.0300 h1         1 RCP       0.053450
     41 H281        -0.7050    -0.6430     3.6350 h1         1 RCP       0.053450
     42 H282        -1.4710    -1.4530     2.2490 h1         1 RCP       0.053450
     43 H271        -1.3760     0.9080     1.7120 h1         1 RCP       0.062450
     44 H272         0.3010     1.0480     2.2460 h1         1 RCP       0.062450
     45 H25          1.4010     0.4200    -1.9940 hc         1 RCP       0.070700
     46 H241        -0.7100    -0.6410    -2.2980 h1         1 RCP       0.039200
     47 H242        -1.4430     0.8470    -2.9080 h1         1 RCP       0.039200
     48 H231         1.7760     2.8780    -2.1930 hc         1 RCP       0.057200
     49 H232         0.1310     3.0930    -2.8010 hc         1 RCP       0.057200
     50 H221         1.6740     2.9700    -4.7270 hc         1 RCP       0.048200
     51 H222         2.3760     1.4670    -4.1360 hc         1 RCP       0.048200
     52 H211        -0.5130     1.8680    -5.1090 h1         1 RCP       0.033200
     53 H212         0.8040     1.0260    -5.9390 h1         1 RCP       0.033200
     54 H20         -1.9290    -0.2820    -5.1600 h1         1 RCP       0.023700
     55 H191        -1.9010    -1.9890    -3.3600 hc         1 RCP       0.055700
     56 H192        -0.4580    -2.7400    -4.0410 hc         1 RCP       0.055700
     57 H171         0.5230    -1.6800    -6.3840 hc         1 RCP       0.055700
     58 H172        -0.3440    -0.3040    -7.0690 hc         1 RCP       0.055700
     59 H181        -2.5000    -4.0290    -4.6010 h1         1 RCP       0.058200
     60 H182        -3.2610    -2.5940    -5.3000 h1         1 RCP       0.058200
     61 H161        -2.3740    -1.6250    -7.4170 h1         1 RCP       0.058200
     62 H162        -0.9890    -2.3650    -8.2220 h1         1 RCP       0.058200
     63 H2           1.3720    -4.6880    -6.1810 ha         1 RCP       0.121000
     64 H3           3.8060    -4.8310    -6.4980 ha         1 RCP       0.115000
     65 H4           4.7700    -5.0980    -8.7790 ha         1 RCP       0.115000
     66 H5           3.2720    -5.2150   -10.7550 ha         1 RCP       0.114000
     67 H7           1.0510    -5.1850   -11.7150 ha         1 RCP       0.116000
     68 H9          -1.1500    -5.1510   -12.7170 ha         1 RCP       0.114000
     69 H12         -3.2580    -4.6950    -8.2270 ha         1 RCP       0.121000
     70 H11         -4.6590    -4.7860   -10.2450 ha         1 RCP       0.115000
     71 H10         -3.6200    -5.0130   -12.4970 ha         1 RCP       0.115000
@<TRIPOS>BOND
     1     1     2 1   
     2     1     6 1   
     3     1    37 1   
     4     1    38 1   
     5     2     3 1   
     6     2    39 1   
     7     2    40 1   
     8     3     4 1   
     9     4     5 1   
    10     4    41 1   
    11     4    42 1   
    12     5     6 1   
    13     5    43 1   
    14     5    44 1   
    15     6     7 1   
    16     7     8 2   
    17     7     9 1   
    18     9    10 1   
    19     9    11 1   
    20     9    45 1   
    21    10    14 1   
    22    10    46 1   
    23    10    47 1   
    24    11    12 1   
    25    11    48 1   
    26    11    49 1   
    27    12    13 1   
    28    12    50 1   
    29    12    51 1   
    30    13    14 1   
    31    13    52 1   
    32    13    53 1   
    33    14    15 1   
    34    15    16 1   
    35    15    18 1   
    36    15    54 1   
    37    16    17 1   
    38    16    55 1   
    39    16    56 1   
    40    17    20 1   
    41    17    59 1   
    42    17    60 1   
    43    18    19 1   
    44    18    57 1   
    45    18    58 1   
    46    19    20 1   
    47    19    61 1   
    48    19    62 1   
    49    20    21 1   
    50    21    22 2   
    51    21    23 1   
    52    23    24 ar  
    53    23    32 ar  
    54    24    25 ar  
    55    24    29 ar  
    56    25    26 ar  
    57    25    63 1   
    58    26    27 ar  
    59    26    64 1   
    60    27    28 ar  
    61    27    65 1   
    62    28    29 ar  
    63    28    66 1   
    64    29    30 ar  
    65    30    31 ar  
    66    30    67 1   
    67    31    32 ar  
    68    31    36 ar  
    69    32    33 ar  
    70    33    34 ar  
    71    33    69 1   
    72    34    35 ar  
    73    34    70 1   
    74    35    36 ar  
    75    35    71 1   
    76    36    68 1   
@<TRIPOS>SUBSTRUCTURE
     1 RCP         1 TEMP              0 ****  ****    0 ROOT
