@<TRIPOS>MOLECULE
RCQ
   20    21     1     0     0
SMALL
No Charge or Current Charge


@<TRIPOS>ATOM
      1 C01        -10.8320    29.8770   -31.8270 ca         1 RCQ       0.280000
      2 C02        -11.2780    28.6210   -32.3070 ca         1 RCQ      -0.168500
      3 C03        -10.3930    27.5180   -32.2460 ca         1 RCQ      -0.030000
      4 C04         -9.1200    27.6480   -31.6680 ca         1 RCQ       0.081000
      5 C05         -8.7070    28.8830   -31.1520 ca         1 RCQ      -0.055000
      6 C06         -9.5620    29.9930   -31.2370 ca         1 RCQ      -0.169000
      7 C07        -12.6090    28.4200   -32.8940 cc         1 RCQ       0.477000
      8 C08        -14.3070    27.6430   -33.9480 cd         1 RCQ       0.519900
      9 N01        -11.5800    31.0210   -31.9440 nv         1 RCQ      -1.071000
     10 N02        -13.7310    29.1470   -32.6080 na         1 RCQ      -0.184700
     11 N03        -14.8200    28.6710   -33.2800 nc         1 RCQ      -0.534800
     12 N04        -12.9530    27.4500   -33.7200 nd         1 RCQ      -0.704000
     13 Cl1         -8.0470    26.2560   -31.5820 cl         1 RCQ      -0.193000
     14 H1         -10.6970    26.5460   -32.6270 ha         1 RCQ       0.156000
     15 H2          -7.7220    28.9820   -30.7010 ha         1 RCQ       0.132000
     16 H3          -9.2230    30.9530   -30.8580 ha         1 RCQ       0.119000
     17 H4         -14.8790    26.9970   -34.6050 h5         1 RCQ       0.064100
     18 H5         -11.1650    31.8810   -31.5860 hn         1 RCQ       0.444500
     19 H6         -12.1200    31.1530   -32.7980 hn         1 RCQ       0.444500
     20 H7         -13.7670    29.9340   -31.9650 hn         1 RCQ       0.391000
@<TRIPOS>BOND
     1     1     2 ar  
     2     1     6 ar  
     3     1     9 1   
     4     2     3 ar  
     5     2     7 1   
     6     3     4 ar  
     7     3    14 1   
     8     4     5 ar  
     9     4    13 1   
    10     5     6 ar  
    11     5    15 1   
    12     6    16 1   
    13     7    10 1   
    14     7    12 2   
    15     8    11 2   
    16     8    12 1   
    17     8    17 1   
    18     9    18 1   
    19     9    19 1   
    20    10    11 1   
    21    10    20 1   
@<TRIPOS>SUBSTRUCTURE
     1 RCQ         1 TEMP              0 ****  ****    0 ROOT
