@<TRIPOS>MOLECULE
RCQ
   20    21     1     0     0
SMALL
abcg2


@<TRIPOS>ATOM
      1 C01        -10.8290    29.8920   -31.8460 ca         1 RCQ       0.280000
      2 C02        -11.2550    28.6460   -32.3400 ca         1 RCQ      -0.168500
      3 C03        -10.4010    27.5440   -32.2750 ca         1 RCQ      -0.030000
      4 C04         -9.1590    27.6570   -31.6870 ca         1 RCQ       0.081000
      5 C05         -8.7400    28.8680   -31.1560 ca         1 RCQ      -0.055000
      6 C06         -9.5690    29.9700   -31.2480 ca         1 RCQ      -0.169000
      7 C07        -12.5870    28.4270   -32.9010 cc         1 RCQ       0.477000
      8 C08        -14.2470    27.6180   -33.8880 cd         1 RCQ       0.519900
      9 N01        -11.6490    31.0100   -31.9050 nv         1 RCQ      -1.071000
     10 N02        -13.6820    29.1520   -32.6310 na         1 RCQ      -0.184700
     11 N03        -14.7490    28.6480   -33.2500 nc         1 RCQ      -0.534800
     12 N04        -12.9250    27.4380   -33.7090 nd         1 RCQ      -0.704000
     13 CL1         -8.1200    26.2700   -31.5960 cl         1 RCQ      -0.193000
     14 H1         -10.7360    26.5940   -32.6690 ha         1 RCQ       0.156000
     15 H2          -7.7690    28.9600   -30.6880 ha         1 RCQ       0.132000
     16 H3          -9.2270    30.9210   -30.8580 ha         1 RCQ       0.119000
     17 H4         -14.8550    26.9770   -34.5090 h5         1 RCQ       0.064100
     18 H5         -11.2060    31.8480   -31.5580 hn         1 RCQ       0.444500
     19 H6         -12.0450    31.1980   -32.8160 hn         1 RCQ       0.444500
     20 H7         -13.7630    29.9550   -32.0230 hn         1 RCQ       0.391000
@<TRIPOS>BOND
     1     1     2 ar  
     2     1     6 ar  
     3     1     9 1   
     4     2     3 ar  
     5     2     7 1   
     6     3     4 ar  
     7     3    14 1   
     8     4     5 ar  
     9     4    13 1   
    10     5     6 ar  
    11     5    15 1   
    12     6    16 1   
    13     7    10 1   
    14     7    12 2   
    15     8    11 2   
    16     8    12 1   
    17     8    17 1   
    18     9    18 1   
    19     9    19 1   
    20    10    11 1   
    21    10    20 1   
@<TRIPOS>SUBSTRUCTURE
     1 RCQ         1 TEMP              0 ****  ****    0 ROOT
