@<TRIPOS>MOLECULE
RCR
   41    45     1     0     0
SMALL
No Charge or Current Charge


@<TRIPOS>ATOM
      1 C18        -44.2820   -30.0870     6.3320 ca         1 RCR       0.186900
      2 C16        -46.5010   -29.7710     6.6970 ca         1 RCR       0.198500
      3 C13        -48.6710   -28.0350     4.2360 ca         1 RCR      -0.063000
      4 C12        -50.0440   -27.7410     4.3910 ca         1 RCR      -0.112000
      5 C11        -50.7430   -28.1520     5.5530 ca         1 RCR       0.005100
      6 C10        -50.0790   -28.8470     6.5850 ca         1 RCR      -0.118000
      7 C20        -44.3810   -27.9650     2.6410 c5         1 RCR       0.228800
      8 C02        -45.9290   -29.7400    -0.3460 c          1 RCR       0.722000
      9 C03        -45.1850   -29.4450     1.0180 c5         1 RCR       0.060000
     10 C04        -46.2060   -29.4730     2.2110 c5         1 RCR       0.193800
     11 C06        -45.4900   -29.1310     4.6060 ca         1 RCR       0.445900
     12 C07        -46.6350   -29.1990     5.4290 cp         1 RCR      -0.249000
     13 C08        -48.0200   -28.7660     5.2510 cp         1 RCR      -0.014000
     14 C09        -48.7230   -29.1280     6.3930 ca         1 RCR      -0.031200
     15 C21        -44.6340   -27.9770     1.1080 cy         1 RCR      -0.094000
     16 C22        -45.4620   -26.7810     0.4970 cy         1 RCR      -0.071400
     17 C23        -44.0950   -26.0440     0.3310 cy         1 RCR      -0.101400
     18 C24        -43.4950   -27.4740     0.1430 cy         1 RCR      -0.071400
     19 F25        -44.1710   -30.4090     1.2110 f          1 RCR      -0.280000
     20 N05        -45.5000   -28.6970     3.2670 nh         1 RCR      -0.746300
     21 N15        -47.7900   -29.7370     7.2420 na         1 RCR      -0.337300
     22 N17        -45.3320   -30.2230     7.1730 nb         1 RCR      -0.280000
     23 N19        -44.3030   -29.5740     5.0790 nb         1 RCR      -0.306000
     24 O01        -47.1500   -29.8470    -0.3730 o          1 RCR      -0.701000
     25 O26        -45.2660   -29.9070    -1.3640 o          1 RCR      -0.701000
     26 Br14       -52.5980   -27.7290     5.7410 br         1 RCR      -0.139100
     27 H181       -43.3190   -30.4410     6.6960 h5         1 RCR       0.033100
     28 H131       -48.1290   -27.6810     3.3650 ha         1 RCR       0.144000
     29 H121       -50.5660   -27.1830     3.6170 ha         1 RCR       0.132000
     30 H101       -50.5970   -29.1430     7.4940 ha         1 RCR       0.122000
     31 H202       -43.4230   -28.4500     2.8790 h1         1 RCR       0.055200
     32 H201       -44.3160   -26.9460     3.0460 h1         1 RCR       0.055200
     33 H042       -47.1560   -28.9940     1.9430 h1         1 RCR       0.076200
     34 H041       -46.4260   -30.5040     2.5230 h1         1 RCR       0.076200
     35 H221       -46.1830   -26.3040     1.1700 hc         1 RCR       0.064450
     36 H222       -45.9700   -26.9970    -0.4510 hc         1 RCR       0.064450
     37 H231       -43.7450   -25.5110     1.2230 hc         1 RCR       0.032700
     38 H232       -44.0130   -25.3740    -0.5320 hc         1 RCR       0.032700
     39 H241       -43.5530   -27.8550    -0.8830 hc         1 RCR       0.064450
     40 H242       -42.4690   -27.6130     0.5010 hc         1 RCR       0.064450
     41 H151       -48.0120   -30.1050     8.1600 hn         1 RCR       0.357000
@<TRIPOS>BOND
     1     1    22 ar  
     2     1    23 ar  
     3     1    27 1   
     4     2    12 ar  
     5     2    21 1   
     6     2    22 ar  
     7     3     4 ar  
     8     3    13 ar  
     9     3    28 1   
    10     4     5 ar  
    11     4    29 1   
    12     5     6 ar  
    13     5    26 1   
    14     6    14 ar  
    15     6    30 1   
    16     7    15 1   
    17     7    20 1   
    18     7    31 1   
    19     7    32 1   
    20     8     9 1   
    21     8    24 1   
    22     8    25 1   
    23     9    10 1   
    24     9    15 1   
    25     9    19 1   
    26    10    20 1   
    27    10    33 1   
    28    10    34 1   
    29    11    12 ar  
    30    11    20 1   
    31    11    23 ar  
    32    12    13 1   
    33    13    14 ar  
    34    14    21 1   
    35    15    16 1   
    36    15    18 1   
    37    16    17 1   
    38    16    35 1   
    39    16    36 1   
    40    17    18 1   
    41    17    37 1   
    42    17    38 1   
    43    18    39 1   
    44    18    40 1   
    45    21    41 1   
@<TRIPOS>SUBSTRUCTURE
     1 RCR         1 TEMP              0 ****  ****    0 ROOT
