@<TRIPOS>MOLECULE
RCR
   41    45     1     0     0
SMALL
abcg2


@<TRIPOS>ATOM
      1 C18        -44.2660   -29.1720     6.4610 ca         1 RCR       0.186900
      2 C16        -46.4610   -29.4570     6.6180 ca         1 RCR       0.198500
      3 C13        -49.0340   -28.4210     4.1960 ca         1 RCR      -0.063000
      4 C12        -50.4020   -28.4930     4.4170 ca         1 RCR      -0.112000
      5 C11        -50.8880   -29.0410     5.6050 ca         1 RCR       0.005100
      6 C10        -50.0520   -29.5010     6.6070 ca         1 RCR      -0.118000
      7 C20        -44.1700   -28.1710     2.5790 c5         1 RCR       0.228800
      8 C02        -46.5500   -28.9450    -0.3120 c          1 RCR       0.722000
      9 C03        -45.7160   -29.0220     0.9930 c5         1 RCR       0.060000
     10 C04        -46.4920   -28.7630     2.2710 c5         1 RCR       0.193800
     11 C06        -45.5110   -28.7060     4.5630 ca         1 RCR       0.445900
     12 C07        -46.6920   -28.9780     5.3060 cp         1 RCR      -0.249000
     13 C08        -48.1380   -28.9070     5.1540 cp         1 RCR      -0.014000
     14 C09        -48.6860   -29.4130     6.3670 ca         1 RCR      -0.031200
     15 C21        -44.5480   -28.0400     1.1040 cy         1 RCR      -0.094000
     16 C22        -44.7730   -26.5670     0.6540 cy         1 RCR      -0.071400
     17 C23        -43.3480   -26.5740     0.0500 cy         1 RCR      -0.101400
     18 C24        -43.3610   -28.1210     0.1190 cy         1 RCR      -0.071400
     19 F25        -45.1500   -30.3250     1.1070 f          1 RCR      -0.280000
     20 N05        -45.4570   -28.4110     3.2490 nh         1 RCR      -0.746300
     21 N15        -47.6530   -29.7470     7.2160 na         1 RCR      -0.337300
     22 N17        -45.2760   -29.5810     7.2240 nb         1 RCR      -0.280000
     23 N19        -44.3150   -28.7550     5.2030 nb         1 RCR      -0.306000
     24 O01        -47.4450   -28.0670    -0.3320 o          1 RCR      -0.701000
     25 O26        -46.2340   -29.7350    -1.2270 o          1 RCR      -0.701000
     26 BR14       -52.7850   -29.1390     5.8680 br         1 RCR      -0.139100
     27 H181       -43.2800   -29.1950     6.9160 h5         1 RCR       0.033100
     28 H131       -48.6900   -27.9700     3.2800 ha         1 RCR       0.144000
     29 H121       -51.0890   -28.1180     3.6720 ha         1 RCR       0.132000
     30 H101       -50.4340   -29.8980     7.5370 ha         1 RCR       0.122000
     31 H202       -43.4980   -29.0170     2.7370 h1         1 RCR       0.055200
     32 H201       -43.6870   -27.2770     2.9730 h1         1 RCR       0.055200
     33 H042       -47.1740   -27.9360     2.0900 h1         1 RCR       0.076200
     34 H041       -47.0530   -29.6410     2.5860 h1         1 RCR       0.076200
     35 H221       -44.9880   -25.8510     1.4480 hc         1 RCR       0.064450
     36 H222       -45.5440   -26.4950    -0.1100 hc         1 RCR       0.064450
     37 H231       -42.6100   -26.1410     0.7260 hc         1 RCR       0.032700
     38 H232       -43.2300   -26.1220    -0.9340 hc         1 RCR       0.032700
     39 H241       -43.6630   -28.5730    -0.8260 hc         1 RCR       0.064450
     40 H242       -42.4630   -28.6190     0.4840 hc         1 RCR       0.064450
     41 H151       -47.7520   -30.0740     8.1640 hn         1 RCR       0.357000
@<TRIPOS>BOND
     1     1    22 ar  
     2     1    23 ar  
     3     1    27 1   
     4     2    12 ar  
     5     2    21 1   
     6     2    22 ar  
     7     3     4 ar  
     8     3    13 ar  
     9     3    28 1   
    10     4     5 ar  
    11     4    29 1   
    12     5     6 ar  
    13     5    26 1   
    14     6    14 ar  
    15     6    30 1   
    16     7    15 1   
    17     7    20 1   
    18     7    31 1   
    19     7    32 1   
    20     8     9 1   
    21     8    24 1   
    22     8    25 1   
    23     9    10 1   
    24     9    15 1   
    25     9    19 1   
    26    10    20 1   
    27    10    33 1   
    28    10    34 1   
    29    11    12 ar  
    30    11    20 1   
    31    11    23 ar  
    32    12    13 1   
    33    13    14 ar  
    34    14    21 1   
    35    15    16 1   
    36    15    18 1   
    37    16    17 1   
    38    16    35 1   
    39    16    36 1   
    40    17    18 1   
    41    17    37 1   
    42    17    38 1   
    43    18    39 1   
    44    18    40 1   
    45    21    41 1   
@<TRIPOS>SUBSTRUCTURE
     1 RCR         1 TEMP              0 ****  ****    0 ROOT
