@<TRIPOS>MOLECULE
RCT
   34    36     1     0     0
SMALL
No Charge or Current Charge


@<TRIPOS>ATOM
      1 C10        -14.7420    32.7210   -32.2230 cc         1 RCT       0.202900
      2 C14        -11.8750    29.9830   -36.4890 ca         1 RCT      -0.086300
      3 C17        -12.8950    28.3260   -38.5320 ca         1 RCT      -0.110000
      4 C1         -11.3250    30.8770   -35.3830 c3         1 RCT      -0.025100
      5 C15        -12.9540    30.4170   -37.2850 ca         1 RCT      -0.105500
      6 C16        -13.4630    29.5900   -38.3020 ca         1 RCT      -0.109500
      7 C18        -11.8150    27.8910   -37.7470 ca         1 RCT      -0.109500
      8 C19        -11.3050    28.7170   -36.7300 ca         1 RCT      -0.105500
      9 C3         -11.2060    31.2520   -32.8520 ca         1 RCT      -0.044300
     10 C4         -12.2580    32.0500   -32.2900 ca         1 RCT      -0.030000
     11 C5         -11.9410    32.9160   -31.2150 ca         1 RCT      -0.080000
     12 C6         -10.6370    33.0240   -30.7160 ca         1 RCT      -0.106000
     13 C7          -9.6090    32.2700   -31.2860 ca         1 RCT      -0.086000
     14 C8          -9.8850    31.3930   -32.3430 ca         1 RCT       0.120000
     15 C9         -13.6760    32.0540   -32.7620 cd         1 RCT      -0.134000
     16 N11        -15.8730    32.5240   -32.9600 nc         1 RCT      -0.358000
     17 N12        -15.5770    31.7610   -33.9760 nd         1 RCT      -0.196800
     18 N13        -14.2420    31.4670   -33.8840 na         1 RCT      -0.010200
     19 Cl2         -8.5160    30.4950   -33.0100 cl         1 RCT      -0.206000
     20 H1         -14.7860    33.3410   -31.3380 h4         1 RCT       0.053100
     21 H2         -13.2890    27.6870   -39.3190 ha         1 RCT       0.112000
     22 H3         -10.2690    31.1010   -35.5770 hc         1 RCT       0.054700
     23 H4         -11.8370    31.8480   -35.3860 hc         1 RCT       0.054700
     24 H5         -13.4010    31.3960   -37.1230 ha         1 RCT       0.113500
     25 H6         -14.2970    29.9300   -38.9120 ha         1 RCT       0.113500
     26 H7         -11.3710    26.9140   -37.9270 ha         1 RCT       0.113500
     27 H8         -10.4650    28.3710   -36.1320 ha         1 RCT       0.113500
     28 H9         -12.4180    29.7440   -33.8600 hc         1 RCT       0.058700
     29 H10        -10.7500    29.3980   -33.9140 hc         1 RCT       0.058700
     30 H11        -12.7040    33.5360   -30.7560 ha         1 RCT       0.128000
     31 H12        -10.4220    33.7040   -29.8940 ha         1 RCT       0.126000
     32 H13         -8.5940    32.3620   -30.9090 ha         1 RCT       0.135000
     33 H14        -13.7870    30.8890   -34.5810 hn         1 RCT       0.380000
     34 C2         -11.4500    30.2380   -33.9790 c3         1 RCT      -0.035100
@<TRIPOS>BOND
     1     1    15 2   
     2     1    16 1   
     3     1    20 1   
     4     2     4 1   
     5     2     5 ar  
     6     2     8 ar  
     7     3     6 ar  
     8     3     7 ar  
     9     3    21 1   
    10     4    22 1   
    11     4    23 1   
    12     4    34 1   
    13     5     6 ar  
    14     5    24 1   
    15     6    25 1   
    16     7     8 ar  
    17     7    26 1   
    18     8    27 1   
    19     9    10 ar  
    20     9    14 ar  
    21     9    34 1   
    22    10    11 ar  
    23    10    15 1   
    24    11    12 ar  
    25    11    30 1   
    26    12    13 ar  
    27    12    31 1   
    28    13    14 ar  
    29    13    32 1   
    30    14    19 1   
    31    15    18 1   
    32    16    17 2   
    33    17    18 1   
    34    18    33 1   
    35    28    34 1   
    36    29    34 1   
@<TRIPOS>SUBSTRUCTURE
     1 RCT         1 TEMP              0 ****  ****    0 ROOT
