@<TRIPOS>MOLECULE
RCT
   34    36     1     0     0
SMALL
abcg2


@<TRIPOS>ATOM
      1 C10        -14.2730    33.0850   -33.4350 cc         1 RCT       0.202900
      2 C14        -11.8550    30.1780   -36.5010 ca         1 RCT      -0.086300
      3 C17        -12.6840    28.6280   -38.6870 ca         1 RCT      -0.110000
      4 C1         -11.4280    30.9740   -35.2990 c3         1 RCT      -0.025100
      5 C15        -13.2010    30.1300   -36.8730 ca         1 RCT      -0.105500
      6 C16        -13.6140    29.3620   -37.9560 ca         1 RCT      -0.109500
      7 C18        -11.3410    28.6680   -38.3260 ca         1 RCT      -0.109500
      8 C19        -10.9320    29.4370   -37.2400 ca         1 RCT      -0.105500
      9 C3         -11.3450    31.0380   -32.7830 ca         1 RCT      -0.044300
     10 C4         -12.2670    31.9460   -32.2260 ca         1 RCT      -0.030000
     11 C5         -11.9020    32.7840   -31.1720 ca         1 RCT      -0.080000
     12 C6         -10.6220    32.7290   -30.6400 ca         1 RCT      -0.106000
     13 C7          -9.6960    31.8400   -31.1640 ca         1 RCT      -0.086000
     14 C8         -10.0660    31.0200   -32.2220 ca         1 RCT       0.120000
     15 C9         -13.6320    32.0640   -32.7660 cd         1 RCT      -0.134000
     16 N11        -15.5460    32.6970   -33.7080 nc         1 RCT      -0.358000
     17 N12        -15.7340    31.4910   -33.2410 nd         1 RCT      -0.196800
     18 N13        -14.5850    31.1090   -32.6740 na         1 RCT      -0.010200
     19 CL2         -8.8400    29.9420   -32.8700 cl         1 RCT      -0.206000
     20 H1         -13.8850    34.0440   -33.7330 h4         1 RCT       0.053100
     21 H2         -13.0040    28.0310   -39.5330 ha         1 RCT       0.112000
     22 H3         -10.3650    31.2120   -35.3610 hc         1 RCT       0.054700
     23 H4         -11.9730    31.9210   -35.2690 hc         1 RCT       0.054700
     24 H5         -13.9290    30.7010   -36.3070 ha         1 RCT       0.113500
     25 H6         -14.6610    29.3390   -38.2330 ha         1 RCT       0.113500
     26 H7         -10.6100    28.1030   -38.8910 ha         1 RCT       0.113500
     27 H8          -9.8850    29.4660   -36.9630 ha         1 RCT       0.113500
     28 H9         -12.7500    29.9280   -33.9590 hc         1 RCT       0.058700
     29 H10        -11.1260    29.2820   -33.9870 hc         1 RCT       0.058700
     30 H11        -12.6330    33.4720   -30.7680 ha         1 RCT       0.128000
     31 H12        -10.3440    33.3760   -29.8190 ha         1 RCT       0.126000
     32 H13         -8.6930    31.7820   -30.7640 ha         1 RCT       0.135000
     33 H14        -14.5130    30.2000   -32.2370 hn         1 RCT       0.380000
     34 C2         -11.7000    30.2080   -33.9860 c3         1 RCT      -0.035100
@<TRIPOS>BOND
     1     1    15 2   
     2     1    16 1   
     3     1    20 1   
     4     2     4 1   
     5     2     5 ar  
     6     2     8 ar  
     7     3     6 ar  
     8     3     7 ar  
     9     3    21 1   
    10     4    22 1   
    11     4    23 1   
    12     4    34 1   
    13     5     6 ar  
    14     5    24 1   
    15     6    25 1   
    16     7     8 ar  
    17     7    26 1   
    18     8    27 1   
    19     9    10 ar  
    20     9    14 ar  
    21     9    34 1   
    22    10    11 ar  
    23    10    15 1   
    24    11    12 ar  
    25    11    30 1   
    26    12    13 ar  
    27    12    31 1   
    28    13    14 ar  
    29    13    32 1   
    30    14    19 1   
    31    15    18 1   
    32    16    17 2   
    33    17    18 1   
    34    18    33 1   
    35    28    34 1   
    36    29    34 1   
@<TRIPOS>SUBSTRUCTURE
     1 RCT         1 TEMP              0 ****  ****    0 ROOT
