@<TRIPOS>MOLECULE
RCV
   27    27     1     0     0
SMALL
No Charge or Current Charge


@<TRIPOS>ATOM
      1 C4          24.3790     7.1110    55.0250 ca         1 RCV      -0.131000
      2 C5          25.4950     7.8930    55.3670 ca         1 RCV      -0.083000
      3 C6          26.3310     7.4960    56.4230 ca         1 RCV      -0.113000
      4 C7          26.0570     6.3180    57.1450 ca         1 RCV      -0.053300
      5 C8          24.9360     5.5370    56.7970 ca         1 RCV      -0.185000
      6 C9          26.9640     5.8970    58.2970 c3         1 RCV       0.193100
      7 O1          24.5110     2.9150    54.6770 o          1 RCV      -0.457000
      8 C1          23.6100     2.7930    55.4990 c          1 RCV       0.551100
      9 O           23.3440     1.6280    56.1770 os         1 RCV      -0.449100
     10 C           24.1680     0.4790    55.9030 c3         1 RCV       0.151900
     11 C2          22.6410     3.9190    55.9210 c3         1 RCV       0.102600
     12 C3          24.0950     5.9310    55.7310 ca         1 RCV       0.133100
     13 N           28.1320     5.1320    57.8220 n8         1 RCV      -0.992200
     14 H1          23.7320     7.4190    54.2080 ha         1 RCV       0.127000
     15 H2          25.7110     8.8050    54.8140 ha         1 RCV       0.115000
     16 H3          27.1950     8.1040    56.6840 ha         1 RCV       0.128000
     17 H4          24.7360     4.6340    57.3650 ha         1 RCV       0.109000
     18 H5          27.3190     6.7870    58.8350 h1         1 RCV       0.033200
     19 H6          26.3990     5.2750    59.0050 h1         1 RCV       0.033200
     20 H7          23.8460    -0.3760    56.5100 h1         1 RCV       0.050367
     21 H8          24.0980     0.1900    54.8460 h1         1 RCV       0.050367
     22 H9          25.2210     0.6850    56.1380 h1         1 RCV       0.050367
     23 H10         22.6120     3.9620    57.0170 h1         1 RCV       0.082700
     24 H11         21.6430     3.6110    55.5870 h1         1 RCV       0.082700
     25 H12         28.6580     4.7890    58.6340 hn         1 RCV       0.395500
     26 H13         27.7980     4.2750    57.3660 hn         1 RCV       0.395500
     27 O2          22.9800     5.2090    55.3500 os         1 RCV      -0.320100
@<TRIPOS>BOND
     1     1     2 ar  
     2     1    12 ar  
     3     1    14 1   
     4     2     3 ar  
     5     2    15 1   
     6     3     4 ar  
     7     3    16 1   
     8     4     5 ar  
     9     4     6 1   
    10     5    12 ar  
    11     5    17 1   
    12     6    13 1   
    13     6    18 1   
    14     6    19 1   
    15     7     8 2   
    16     8     9 1   
    17     8    11 1   
    18     9    10 1   
    19    10    20 1   
    20    10    21 1   
    21    10    22 1   
    22    11    23 1   
    23    11    24 1   
    24    11    27 1   
    25    12    27 1   
    26    13    25 1   
    27    13    26 1   
@<TRIPOS>SUBSTRUCTURE
     1 RCV         1 TEMP              0 ****  ****    0 ROOT
