@<TRIPOS>MOLECULE
RCV
   27    27     1     0     0
SMALL
abcg2


@<TRIPOS>ATOM
      1 C4          24.4180     7.0030    55.0280 ca         1 RCV      -0.131000
      2 C5          25.5150     7.7610    55.4040 ca         1 RCV      -0.083000
      3 C6          26.3290     7.3630    56.4550 ca         1 RCV      -0.113000
      4 C7          26.0410     6.1910    57.1460 ca         1 RCV      -0.053300
      5 C8          24.9450     5.4210    56.7670 ca         1 RCV      -0.185000
      6 C9          26.9100     5.7500    58.2960 c3         1 RCV       0.193100
      7 O1          24.4080     2.8730    54.6330 o          1 RCV      -0.457000
      8 C1          23.5790     2.8080    55.5010 c          1 RCV       0.551100
      9 O           23.3060     1.7270    56.2080 os         1 RCV      -0.449100
     10 C           24.0360     0.5350    55.9050 c3         1 RCV       0.151900
     11 C2          22.6780     3.9550    55.9180 c3         1 RCV       0.102600
     12 C3          24.1310     5.8240    55.7110 ca         1 RCV       0.133100
     13 N           28.2980     5.6120    57.8810 n8         1 RCV      -0.992200
     14 H1          23.7850     7.3190    54.2090 ha         1 RCV       0.127000
     15 H2          25.7330     8.6780    54.8700 ha         1 RCV       0.115000
     16 H3          27.1860     7.9600    56.7400 ha         1 RCV       0.128000
     17 H4          24.7490     4.5090    57.3180 ha         1 RCV       0.109000
     18 H5          26.8730     6.5120    59.0790 h1         1 RCV       0.033200
     19 H6          26.4840     4.8390    58.7360 h1         1 RCV       0.033200
     20 H7          23.6450    -0.2300    56.5690 h1         1 RCV       0.050367
     21 H8          23.8840     0.2290    54.8700 h1         1 RCV       0.050367
     22 H9          25.1010     0.6680    56.0910 h1         1 RCV       0.050367
     23 H10         22.6470     4.0420    57.0090 h1         1 RCV       0.082700
     24 H11         21.6610     3.7230    55.5940 h1         1 RCV       0.082700
     25 H12         28.8580     5.3580    58.6850 hn         1 RCV       0.395500
     26 H13         28.3790     4.8380    57.2330 hn         1 RCV       0.395500
     27 O2          23.0340     5.1500    55.2870 os         1 RCV      -0.320100
@<TRIPOS>BOND
     1     1     2 ar  
     2     1    12 ar  
     3     1    14 1   
     4     2     3 ar  
     5     2    15 1   
     6     3     4 ar  
     7     3    16 1   
     8     4     5 ar  
     9     4     6 1   
    10     5    12 ar  
    11     5    17 1   
    12     6    13 1   
    13     6    18 1   
    14     6    19 1   
    15     7     8 2   
    16     8     9 1   
    17     8    11 1   
    18     9    10 1   
    19    10    20 1   
    20    10    21 1   
    21    10    22 1   
    22    11    23 1   
    23    11    24 1   
    24    11    27 1   
    25    12    27 1   
    26    13    25 1   
    27    13    26 1   
@<TRIPOS>SUBSTRUCTURE
     1 RCV         1 TEMP              0 ****  ****    0 ROOT
