@<TRIPOS>MOLECULE
RCW
   20    21     1     0     0
SMALL
abcg2


@<TRIPOS>ATOM
      1 C4          -9.5360    28.9730   -30.3160 ca         1 RCW      -0.020000
      2 C5         -10.3860    30.0820   -30.2890 ca         1 RCW      -0.238500
      3 C6          -9.9870    31.2520   -29.5970 ca         1 RCW       0.394000
      4 C7         -11.6700    30.0230   -30.9770 cc         1 RCW       0.476000
      5 C10        -13.4220    29.2990   -32.0070 cc         1 RCW       0.368400
      6 C1          -8.7420    31.2300   -28.9410 ca         1 RCW      -0.212000
      7 C2          -7.9200    30.1260   -28.9670 ca         1 RCW      -0.013000
      8 C3          -8.3210    28.9900   -29.6650 ca         1 RCW      -0.090900
      9 N11        -12.2670    28.8950   -31.4390 na         1 RCW      -0.499000
     10 N13        -10.7680    32.3550   -29.5160 nv         1 RCW      -1.095000
     11 N8         -12.4450    31.0440   -31.2610 nd         1 RCW      -0.412000
     12 N9         -13.5420    30.5890   -31.9070 nd         1 RCW      -0.346000
     13 BR1         -7.1880    27.4790   -29.7310 br         1 RCW      -0.100100
     14 H1          -9.8220    28.0890   -30.8720 ha         1 RCW       0.112000
     15 H2         -14.1250    28.6250   -32.4690 h5         1 RCW       0.065100
     16 H3          -8.4220    32.1120   -28.4010 ha         1 RCW       0.118000
     17 H4          -6.9710    30.1580   -28.4500 ha         1 RCW       0.128000
     18 H5         -11.9570    27.9390   -31.3540 hn         1 RCW       0.364000
     19 H6         -10.3560    33.2060   -29.1720 hn         1 RCW       0.500000
     20 H7         -11.5420    32.4460   -30.1580 hn         1 RCW       0.500000
@<TRIPOS>BOND
     1     1     2 ar  
     2     1     8 ar  
     3     1    14 1   
     4     2     3 ar  
     5     2     4 1   
     6     3     6 ar  
     7     3    10 1   
     8     4     9 1   
     9     4    11 2   
    10     5     9 1   
    11     5    12 2   
    12     5    15 1   
    13     6     7 ar  
    14     6    16 1   
    15     7     8 ar  
    16     7    17 1   
    17     8    13 1   
    18     9    18 1   
    19    10    19 1   
    20    10    20 1   
    21    11    12 1   
@<TRIPOS>SUBSTRUCTURE
     1 RCW         1 TEMP              0 ****  ****    0 ROOT
