@<TRIPOS>MOLECULE
RCW
   20    21     1     0     0
SMALL
No Charge or Current Charge


@<TRIPOS>ATOM
      1 C4          -9.5640    28.9730   -30.3080 ca         1 RCW      -0.020000
      2 C5         -10.4220    30.0990   -30.2590 ca         1 RCW      -0.238500
      3 C6          -9.9760    31.2480   -29.5620 ca         1 RCW       0.394000
      4 C7         -11.7070    30.0470   -30.9760 cc         1 RCW       0.476000
      5 C10        -13.4490    29.2530   -32.0600 cc         1 RCW       0.368400
      6 C1          -8.7270    31.2560   -28.9260 ca         1 RCW      -0.212000
      7 C2          -7.8920    30.1300   -28.9730 ca         1 RCW      -0.013000
      8 C3          -8.3150    28.9900   -29.6670 ca         1 RCW      -0.090900
      9 N11        -12.2860    28.8960   -31.4330 na         1 RCW      -0.499000
     10 N13        -10.7360    32.3750   -29.4580 nv         1 RCW      -1.095000
     11 N8         -12.4840    31.0630   -31.3240 nd         1 RCW      -0.412000
     12 N9         -13.5740    30.5670   -31.9960 nd         1 RCW      -0.346000
     13 Br1         -7.1810    27.4520   -29.7500 br         1 RCW      -0.100100
     14 H1          -9.8520    28.0760   -30.8500 ha         1 RCW       0.112000
     15 H2         -14.1300    28.5460   -32.5200 h5         1 RCW       0.065100
     16 H3          -8.3960    32.1380   -28.3850 ha         1 RCW       0.118000
     17 H4          -6.9240    30.1440   -28.4760 ha         1 RCW       0.128000
     18 H5         -11.9330    27.9590   -31.3190 hn         1 RCW       0.364000
     19 H6         -10.2910    33.2470   -29.1790 hn         1 RCW       0.500000
     20 H7         -11.5520    32.4530   -30.0670 hn         1 RCW       0.500000
@<TRIPOS>BOND
     1     1     2 ar  
     2     1     8 ar  
     3     1    14 1   
     4     2     3 ar  
     5     2     4 1   
     6     3     6 ar  
     7     3    10 1   
     8     4     9 1   
     9     4    11 2   
    10     5     9 1   
    11     5    12 2   
    12     5    15 1   
    13     6     7 ar  
    14     6    16 1   
    15     7     8 ar  
    16     7    17 1   
    17     8    13 1   
    18     9    18 1   
    19    10    19 1   
    20    10    20 1   
    21    11    12 1   
@<TRIPOS>SUBSTRUCTURE
     1 RCW         1 TEMP              0 ****  ****    0 ROOT
