@<TRIPOS>MOLECULE
RCX
   36    38     1     0     0
SMALL
abcg2


@<TRIPOS>ATOM
      1 C1           2.5340    -0.4980     0.0120 ce         1 RCX      -0.117400
      2 C2           1.4760    -1.3190    -0.0540 cf         1 RCX      -0.070400
      3 C3           1.9680    -2.7280    -0.1440 c5         1 RCX       0.180800
      4 C4           3.7470    -1.3370    -0.0070 c          1 RCX       0.651300
      5 O5           3.3800    -2.6240    -0.0970 os         1 RCX      -0.414100
      6 O6           4.9010    -1.0050     0.0380 o          1 RCX      -0.468000
      7 C7           2.5920     0.9660     0.0330 ca         1 RCX      -0.050800
      8 C8           3.3820     1.6340     0.9680 ca         1 RCX      -0.082000
      9 C9           3.4250     3.0210     0.9840 ca         1 RCX      -0.114000
     10 C10          2.6890     3.7540     0.0620 ca         1 RCX      -0.096000
     11 C11          1.9080     3.0940    -0.8780 ca         1 RCX      -0.114000
     12 C12          1.8600     1.7090    -0.8940 ca         1 RCX      -0.082000
     13 C13          0.0500    -1.0020    -0.0150 ca         1 RCX       0.000200
     14 C14         -0.4350    -0.0090     0.8400 ca         1 RCX      -0.108500
     15 C15         -1.7860     0.2740     0.8910 ca         1 RCX      -0.018500
     16 C16         -2.6570    -0.4290     0.0680 ca         1 RCX      -0.258500
     17 C17         -2.2000    -1.4230    -0.7830 ca         1 RCX      -0.018500
     18 C18         -0.8460    -1.7130    -0.8130 ca         1 RCX      -0.108500
     19 S19         -4.3920    -0.0500     0.1130 sy         1 RCX       1.056500
     20 O20         -5.1170    -1.1650    -0.4910 o          1 RCX      -0.519500
     21 O21         -4.7360     0.3610     1.4720 o          1 RCX      -0.519500
     22 C22         -4.5380     1.3640    -0.9550 c3         1 RCX      -0.336100
     23 H2           1.6150    -3.3380     0.6910 h1         1 RCX       0.082200
     24 H3           3.9500     1.0730     1.6990 ha         1 RCX       0.120500
     25 H4           4.0340     3.5300     1.7190 ha         1 RCX       0.117000
     26 H5           2.7280     4.8350     0.0730 ha         1 RCX       0.116000
     27 H6           1.3390     3.6590    -1.6060 ha         1 RCX       0.117000
     28 H7           1.2600     1.1990    -1.6380 ha         1 RCX       0.120500
     29 H8           0.2440     0.5300     1.4860 ha         1 RCX       0.127500
     30 H9          -2.1510     1.0340     1.5700 ha         1 RCX       0.141500
     31 H10         -2.8820    -1.9730    -1.4170 ha         1 RCX       0.141500
     32 H11         -0.4920    -2.4890    -1.4780 ha         1 RCX       0.127500
     33 H12         -4.1990     1.1000    -1.9540 h1         1 RCX       0.103700
     34 H13         -5.5910     1.6440    -0.9780 h1         1 RCX       0.103700
     35 H14         -3.9440     2.1830    -0.5550 h1         1 RCX       0.103700
     36 H1           1.6740    -3.2190    -1.0760 h1         1 RCX       0.082200
@<TRIPOS>BOND
     1     1     2 2   
     2     1     4 1   
     3     1     7 1   
     4     2     3 1   
     5     2    13 1   
     6     3     5 1   
     7     3    23 1   
     8     3    36 1   
     9     4     5 1   
    10     4     6 2   
    11     7     8 ar  
    12     7    12 ar  
    13     8     9 ar  
    14     8    24 1   
    15     9    10 ar  
    16     9    25 1   
    17    10    11 ar  
    18    10    26 1   
    19    11    12 ar  
    20    11    27 1   
    21    12    28 1   
    22    13    14 ar  
    23    13    18 ar  
    24    14    15 ar  
    25    14    29 1   
    26    15    16 ar  
    27    15    30 1   
    28    16    17 ar  
    29    16    19 1   
    30    17    18 ar  
    31    17    31 1   
    32    18    32 1   
    33    19    20 2   
    34    19    21 2   
    35    19    22 1   
    36    22    33 1   
    37    22    34 1   
    38    22    35 1   
@<TRIPOS>SUBSTRUCTURE
     1 RCX         1 TEMP              0 ****  ****    0 ROOT
