@<TRIPOS>MOLECULE
RCX
   36    38     1     0     0
SMALL
No Charge or Current Charge


@<TRIPOS>ATOM
      1 C1           2.5790    -0.5100    -0.0630 ce         1 RCX      -0.117400
      2 C2           1.4630    -1.2740    -0.1570 cf         1 RCX      -0.070400
      3 C3           1.9990    -2.7140    -0.3180 c5         1 RCX       0.180800
      4 C4           3.8140    -1.3320    -0.1480 c          1 RCX       0.651300
      5 O5           3.4460    -2.6420    -0.2730 os         1 RCX      -0.414100
      6 O6           4.9710    -0.9380    -0.1170 o          1 RCX      -0.468000
      7 C7           2.6840     0.9720     0.0610 ca         1 RCX      -0.050800
      8 C8           3.4680     1.5570     1.0750 ca         1 RCX      -0.082000
      9 C9           3.5530     2.9560     1.1880 ca         1 RCX      -0.114000
     10 C10          2.8550     3.7790     0.2880 ca         1 RCX      -0.096000
     11 C11          2.0710     3.2010    -0.7240 ca         1 RCX      -0.114000
     12 C12          1.9860     1.8030    -0.8380 ca         1 RCX      -0.082000
     13 C13          0.0220    -0.9560    -0.0580 ca         1 RCX       0.000200
     14 C14         -0.4230     0.1720     0.6620 ca         1 RCX      -0.108500
     15 C15         -1.7930     0.4700     0.7580 ca         1 RCX      -0.018500
     16 C16         -2.7430    -0.3660     0.1380 ca         1 RCX      -0.258500
     17 C17         -2.3080    -1.4990    -0.5770 ca         1 RCX      -0.018500
     18 C18         -0.9360    -1.7920    -0.6680 ca         1 RCX      -0.108500
     19 S19         -4.5030     0.0210     0.2480 sy         1 RCX       1.056500
     20 O20         -5.2760    -1.2080     0.0200 o          1 RCX      -0.519500
     21 O21         -4.7340     0.8570     1.4340 o          1 RCX      -0.519500
     22 C22         -4.7780     1.0700    -1.1780 c3         1 RCX      -0.336100
     23 H2           1.6420    -3.3710     0.4860 h1         1 RCX       0.082200
     24 H3           4.0070     0.9280     1.7800 ha         1 RCX       0.120500
     25 H4           4.1600     3.4010     1.9740 ha         1 RCX       0.117000
     26 H5           2.9200     4.8610     0.3760 ha         1 RCX       0.116000
     27 H6           1.5280     3.8360    -1.4210 ha         1 RCX       0.117000
     28 H7           1.3770     1.3620    -1.6240 ha         1 RCX       0.120500
     29 H8           0.2890     0.8170     1.1680 ha         1 RCX       0.127500
     30 H9          -2.1080     1.3490     1.3190 ha         1 RCX       0.141500
     31 H10         -3.0260    -2.1570    -1.0650 ha         1 RCX       0.141500
     32 H11         -0.6240    -2.6680    -1.2290 ha         1 RCX       0.127500
     33 H12         -4.5190     0.5000    -2.0760 h1         1 RCX       0.103700
     34 H13         -5.8340     1.3570    -1.1920 h1         1 RCX       0.103700
     35 H14         -4.1370     1.9520    -1.0820 h1         1 RCX       0.103700
     36 H1           1.6970    -3.1510    -1.2800 h1         1 RCX       0.082200
@<TRIPOS>BOND
     1     1     2 2   
     2     1     4 1   
     3     1     7 1   
     4     2     3 1   
     5     2    13 1   
     6     3     5 1   
     7     3    23 1   
     8     3    36 1   
     9     4     5 1   
    10     4     6 2   
    11     7     8 ar  
    12     7    12 ar  
    13     8     9 ar  
    14     8    24 1   
    15     9    10 ar  
    16     9    25 1   
    17    10    11 ar  
    18    10    26 1   
    19    11    12 ar  
    20    11    27 1   
    21    12    28 1   
    22    13    14 ar  
    23    13    18 ar  
    24    14    15 ar  
    25    14    29 1   
    26    15    16 ar  
    27    15    30 1   
    28    16    17 ar  
    29    16    19 1   
    30    17    18 ar  
    31    17    31 1   
    32    18    32 1   
    33    19    20 2   
    34    19    21 2   
    35    19    22 1   
    36    22    33 1   
    37    22    34 1   
    38    22    35 1   
@<TRIPOS>SUBSTRUCTURE
     1 RCX         1 TEMP              0 ****  ****    0 ROOT
