@<TRIPOS>MOLECULE
RD0
   71    76     1     0     0
SMALL
No Charge or Current Charge


@<TRIPOS>ATOM
      1 CAA         -5.0770    -0.5260     1.7730 c6         1 RD0      -0.064400
      2 CAB         -6.4710    -0.9620     2.2960 c6         1 RD0      -0.066900
      3 CAC         -7.5310     0.1330     2.0370 c6         1 RD0      -0.070400
      4 CAD         -7.5660     0.5260     0.5420 c6         1 RD0      -0.066900
      5 CAE         -6.1590     0.9440     0.0380 c6         1 RD0      -0.064400
      6 CAF         -5.0780    -0.1800     0.2400 c6         1 RD0       0.301500
      7 CAH         -4.5170    -2.5850    -0.4190 c5         1 RD0       0.171800
      8 CAI         -5.1280    -3.5420    -1.5280 c5         1 RD0      -0.079400
      9 CAJ         -5.9680    -2.6420    -2.5320 c5         1 RD0      -0.079400
     10 CAK         -5.5210    -1.2290    -2.0660 c5         1 RD0       0.171800
     11 CAL         -3.7020     0.3470    -0.1630 cc         1 RD0      -0.259300
     12 CAN         -3.4660     1.2220    -1.2030 cd         1 RD0       0.282900
     13 CAP         -1.3660     0.9750    -0.5010 cc         1 RD0       0.511900
     14 CAQ          0.0960     1.1610    -0.4620 ca         1 RD0      -0.176500
     15 CAR          0.7290     2.0170    -1.4010 ca         1 RD0      -0.007000
     16 CAS          0.9010     0.4940     0.5060 ca         1 RD0      -0.080000
     17 CAT          2.3000     0.6750     0.5390 ca         1 RD0      -0.131000
     18 CAU          2.8850     1.5300    -0.4050 ca         1 RD0      -0.036200
     19 CAV          2.1200     2.1720    -1.3360 ca         1 RD0      -0.108800
     20 CAW          3.0020     2.9570    -2.1480 cc         1 RD0      -0.230200
     21 CAX          4.2910     2.7540    -1.6680 cd         1 RD0      -0.162100
     22 CBA          5.8100    -0.0530    -0.2000 c3         1 RD0      -0.097400
     23 CBB          6.9120    -0.6940     0.6970 c6         1 RD0      -0.060700
     24 CBC          7.2270    -2.1460     0.2440 c6         1 RD0      -0.073900
     25 CBD          8.3440    -2.7790     1.1100 c6         1 RD0       0.159800
     26 CBF          9.3200    -0.5620     1.5720 c6         1 RD0       0.159800
     27 CBG          8.2280     0.1370     0.7230 c6         1 RD0      -0.073900
     28 NAG         -5.4010    -1.3950    -0.5830 n3         1 RD0      -0.743600
     29 NAO         -2.1400     1.5790    -1.3950 nd         1 RD0      -0.656000
     30 NAY          4.2240     1.8620    -0.5740 na         1 RD0      -0.087700
     31 NBE          9.5690    -1.9450     1.1010 n7         1 RD0      -0.860400
     32 SAM         -2.2010    -0.0590     0.6340 ss         1 RD0      -0.055400
     33 H1          -4.7470     0.3550     2.3420 hc         1 RD0       0.043200
     34 H2          -4.3490    -1.3130     2.0050 hc         1 RD0       0.043200
     35 H3          -6.7780    -1.8990     1.8120 hc         1 RD0       0.043950
     36 H4          -6.4140    -1.1740     3.3730 hc         1 RD0       0.043950
     37 H5          -8.5210    -0.2200     2.3550 hc         1 RD0       0.035700
     38 H6          -7.3040     1.0190     2.6460 hc         1 RD0       0.035700
     39 H7          -7.9430    -0.3160    -0.0550 hc         1 RD0       0.043950
     40 H8          -8.2740     1.3520     0.3930 hc         1 RD0       0.043950
     41 H9          -6.2380     1.2460    -1.0120 hc         1 RD0       0.043200
     42 H10         -5.8440     1.8470     0.5790 hc         1 RD0       0.043200
     43 H11         -4.5690    -3.0340     0.5810 h1         1 RD0       0.036950
     44 H12         -3.4690    -2.3480    -0.6470 h1         1 RD0       0.036950
     45 H13         -4.3310    -4.0850    -2.0460 hc         1 RD0       0.044700
     46 H14         -5.7710    -4.3020    -1.0700 hc         1 RD0       0.044700
     47 H15         -5.7330    -2.8330    -3.5850 hc         1 RD0       0.044700
     48 H16         -7.0450    -2.7840    -2.3910 hc         1 RD0       0.044700
     49 H17         -4.5580    -0.9550    -2.5180 h1         1 RD0       0.036950
     50 H18         -6.2610    -0.4730    -2.3580 h1         1 RD0       0.036950
     51 H19         -4.2130     1.6360    -1.8690 h4         1 RD0       0.039100
     52 H20          0.1620     2.5490    -2.1610 ha         1 RD0       0.138000
     53 H21          0.4550    -0.1710     1.2420 ha         1 RD0       0.111000
     54 H22          2.9030     0.1580     1.2820 ha         1 RD0       0.116000
     55 H23          2.7320     3.5950    -2.9890 ha         1 RD0       0.209000
     56 H24          5.2330     3.1680    -2.0160 h4         1 RD0       0.211000
     57 H25          4.9960     1.3000     1.2970 h1         1 RD0       0.056700
     58 H26          6.1580     2.0570     0.1960 h1         1 RD0       0.056700
     59 H27          4.9390    -0.7200    -0.2270 hc         1 RD0       0.055700
     60 H28          6.1670     0.0200    -1.2350 hc         1 RD0       0.055700
     61 H29          6.5030    -0.7320     1.7170 hc         1 RD0       0.041700
     62 H30          6.3230    -2.7660     0.3060 hc         1 RD0       0.046950
     63 H31          7.5370    -2.1520    -0.8100 hc         1 RD0       0.046950
     64 H32          7.9860    -2.8920     2.1440 h1         1 RD0       0.029200
     65 H33          8.5820    -3.7840     0.7290 h1         1 RD0       0.029200
     66 H34         10.2540     0.0170     1.5190 h1         1 RD0       0.029200
     67 H35          9.0030    -0.5870     2.6250 h1         1 RD0       0.029200
     68 H36          8.5990     0.2840    -0.3010 hc         1 RD0       0.046950
     69 H37          8.0450     1.1370     1.1370 hc         1 RD0       0.046950
     70 H39         10.2710    -2.3820     1.7140 hn         1 RD0       0.411000
     71 CAZ          5.3270     1.3440     0.2520 c3         1 RD0       0.077600
@<TRIPOS>BOND
     1     1     2 1   
     2     1     6 1   
     3     1    33 1   
     4     1    34 1   
     5     2     3 1   
     6     2    35 1   
     7     2    36 1   
     8     3     4 1   
     9     3    37 1   
    10     3    38 1   
    11     4     5 1   
    12     4    39 1   
    13     4    40 1   
    14     5     6 1   
    15     5    41 1   
    16     5    42 1   
    17     6    11 1   
    18     6    28 1   
    19     7     8 1   
    20     7    28 1   
    21     7    43 1   
    22     7    44 1   
    23     8     9 1   
    24     8    45 1   
    25     8    46 1   
    26     9    10 1   
    27     9    47 1   
    28     9    48 1   
    29    10    28 1   
    30    10    49 1   
    31    10    50 1   
    32    11    12 2   
    33    11    32 1   
    34    12    29 1   
    35    12    51 1   
    36    13    14 1   
    37    13    29 2   
    38    13    32 1   
    39    14    15 ar  
    40    14    16 ar  
    41    15    19 ar  
    42    15    52 1   
    43    16    17 ar  
    44    16    53 1   
    45    17    18 ar  
    46    17    54 1   
    47    18    19 ar  
    48    18    30 1   
    49    19    20 1   
    50    20    21 2   
    51    20    55 1   
    52    21    30 1   
    53    21    56 1   
    54    22    23 1   
    55    22    59 1   
    56    22    60 1   
    57    22    71 1   
    58    23    24 1   
    59    23    27 1   
    60    23    61 1   
    61    24    25 1   
    62    24    62 1   
    63    24    63 1   
    64    25    31 1   
    65    25    64 1   
    66    25    65 1   
    67    26    27 1   
    68    26    31 1   
    69    26    66 1   
    70    26    67 1   
    71    27    68 1   
    72    27    69 1   
    73    30    71 1   
    74    31    70 1   
    75    57    71 1   
    76    58    71 1   
@<TRIPOS>SUBSTRUCTURE
     1 RD0         1 TEMP              0 ****  ****    0 ROOT
