@<TRIPOS>MOLECULE
RD0
   71    76     1     0     0
SMALL
abcg2


@<TRIPOS>ATOM
      1 CAA         -5.1570    -0.1940     1.6820 c6         1 RD0      -0.064400
      2 CAB         -6.5290    -0.6640     2.1490 c6         1 RD0      -0.066900
      3 CAC         -7.6320     0.2500     1.6290 c6         1 RD0      -0.070400
      4 CAD         -7.5480     0.4200     0.1170 c6         1 RD0      -0.066900
      5 CAE         -6.1600     0.8760    -0.3130 c6         1 RD0      -0.064400
      6 CAF         -5.0590    -0.1000     0.1480 c6         1 RD0       0.301500
      7 CAH         -4.5450    -2.5500     0.0370 c5         1 RD0       0.171800
      8 CAI         -5.0300    -3.6960    -0.8510 c5         1 RD0      -0.079400
      9 CAJ         -5.4980    -3.0080    -2.1480 c5         1 RD0      -0.079400
     10 CAK         -5.2920    -1.5140    -1.8890 c5         1 RD0       0.171800
     11 CAL         -3.7080     0.4650    -0.2460 cc         1 RD0      -0.259300
     12 CAN         -3.3950     1.3480    -1.2360 cd         1 RD0       0.282900
     13 CAP         -1.3330     1.0330    -0.5310 cc         1 RD0       0.511900
     14 CAQ          0.1170     1.1880    -0.4300 ca         1 RD0      -0.176500
     15 CAR          0.7380     2.1960    -1.1580 ca         1 RD0      -0.007000
     16 CAS          0.8840     0.3410     0.3970 ca         1 RD0      -0.080000
     17 CAT          2.2490     0.4870     0.5180 ca         1 RD0      -0.131000
     18 CAU          2.8600     1.5080    -0.2080 ca         1 RD0      -0.036200
     19 CAV          2.1170     2.3650    -1.0540 ca         1 RD0      -0.108800
     20 CAW          3.0500     3.2810    -1.6300 cc         1 RD0      -0.230200
     21 CAX          4.2730     2.9550    -1.1220 cd         1 RD0      -0.162100
     22 CBA          5.7730     0.0080    -0.2860 c3         1 RD0      -0.097400
     23 CBB          6.8320    -0.7480     0.5120 c6         1 RD0      -0.060700
     24 CBC          7.1910    -2.0690    -0.1680 c6         1 RD0      -0.073900
     25 CBD          8.2760    -2.8080     0.6020 c6         1 RD0       0.159800
     26 CBF          9.1560    -0.7510     1.4750 c6         1 RD0       0.159800
     27 CBG          8.1050     0.0680     0.7390 c6         1 RD0      -0.073900
     28 NAG         -5.3080    -1.4110    -0.4410 n3         1 RD0      -0.743600
     29 NAO         -2.0790     1.6590    -1.3890 nd         1 RD0      -0.656000
     30 NAY          4.1670     1.8940    -0.2620 na         1 RD0      -0.087700
     31 NBE          9.4510    -1.9670     0.7370 n7         1 RD0      -0.860400
     32 SAM         -2.2350     0.0060     0.5350 ss         1 RD0      -0.055400
     33 H1          -4.9540     0.8020     2.0870 hc         1 RD0       0.043200
     34 H2          -4.3790    -0.8470     2.0860 hc         1 RD0       0.043200
     35 H3          -6.7060    -1.6880     1.8100 hc         1 RD0       0.043950
     36 H4          -6.5460    -0.6910     3.2410 hc         1 RD0       0.043950
     37 H5          -8.6130    -0.1350     1.9160 hc         1 RD0       0.035700
     38 H6          -7.5330     1.2330     2.1040 hc         1 RD0       0.035700
     39 H7          -7.7950    -0.5240    -0.3760 hc         1 RD0       0.043950
     40 H8          -8.2860     1.1520    -0.2210 hc         1 RD0       0.043950
     41 H9          -6.1320     1.0170    -1.3950 hc         1 RD0       0.043200
     42 H10         -5.9440     1.8550     0.1270 hc         1 RD0       0.043200
     43 H11         -4.7320    -2.7400     1.0940 h1         1 RD0       0.036950
     44 H12         -3.4580    -2.4180    -0.0860 h1         1 RD0       0.036950
     45 H13         -4.2400    -4.4270    -1.0220 hc         1 RD0       0.044700
     46 H14         -5.8570    -4.2230    -0.3750 hc         1 RD0       0.044700
     47 H15         -4.9380    -3.3390    -3.0230 hc         1 RD0       0.044700
     48 H16         -6.5490    -3.2240    -2.3410 hc         1 RD0       0.044700
     49 H17         -4.3340    -1.1820    -2.3190 h1         1 RD0       0.036950
     50 H18         -6.0780    -0.9090    -2.3430 h1         1 RD0       0.036950
     51 H19         -4.1180     1.8170    -1.8880 h4         1 RD0       0.039100
     52 H20          0.1490     2.8490    -1.7900 ha         1 RD0       0.138000
     53 H21          0.4040    -0.4580     0.9490 ha         1 RD0       0.111000
     54 H22          2.8170    -0.1800     1.1550 ha         1 RD0       0.116000
     55 H23          2.8410     4.0830    -2.3200 ha         1 RD0       0.209000
     56 H24          5.2360     3.4090    -1.3020 h4         1 RD0       0.211000
     57 H25          4.9460     1.0110     1.4420 h1         1 RD0       0.056700
     58 H26          6.0600     2.0000     0.5240 h1         1 RD0       0.056700
     59 H27          4.9280    -0.6620    -0.4750 hc         1 RD0       0.055700
     60 H28          6.1780     0.2860    -1.2650 hc         1 RD0       0.055700
     61 H29          6.4050    -0.9870     1.4970 hc         1 RD0       0.041700
     62 H30          6.3040    -2.7020    -0.2500 hc         1 RD0       0.046950
     63 H31          7.5410    -1.8710    -1.1870 hc         1 RD0       0.046950
     64 H32          7.8660    -3.1180     1.5780 h1         1 RD0       0.029200
     65 H33          8.5540    -3.7220     0.0720 h1         1 RD0       0.029200
     66 H34         10.0750    -0.1720     1.5830 h1         1 RD0       0.029200
     67 H35          8.7880    -0.9580     2.4940 h1         1 RD0       0.029200
     68 H36          8.5060     0.3910    -0.2280 hc         1 RD0       0.046950
     69 H37          7.8930     0.9730     1.3150 hc         1 RD0       0.046950
     70 H39         10.1790    -2.4810     1.2150 hn         1 RD0       0.411000
     71 CAZ          5.2690     1.2570     0.4270 c3         1 RD0       0.077600
@<TRIPOS>BOND
     1     1     2 1   
     2     1     6 1   
     3     1    33 1   
     4     1    34 1   
     5     2     3 1   
     6     2    35 1   
     7     2    36 1   
     8     3     4 1   
     9     3    37 1   
    10     3    38 1   
    11     4     5 1   
    12     4    39 1   
    13     4    40 1   
    14     5     6 1   
    15     5    41 1   
    16     5    42 1   
    17     6    11 1   
    18     6    28 1   
    19     7     8 1   
    20     7    28 1   
    21     7    43 1   
    22     7    44 1   
    23     8     9 1   
    24     8    45 1   
    25     8    46 1   
    26     9    10 1   
    27     9    47 1   
    28     9    48 1   
    29    10    28 1   
    30    10    49 1   
    31    10    50 1   
    32    11    12 2   
    33    11    32 1   
    34    12    29 1   
    35    12    51 1   
    36    13    14 1   
    37    13    29 2   
    38    13    32 1   
    39    14    15 ar  
    40    14    16 ar  
    41    15    19 ar  
    42    15    52 1   
    43    16    17 ar  
    44    16    53 1   
    45    17    18 ar  
    46    17    54 1   
    47    18    19 ar  
    48    18    30 1   
    49    19    20 1   
    50    20    21 2   
    51    20    55 1   
    52    21    30 1   
    53    21    56 1   
    54    22    23 1   
    55    22    59 1   
    56    22    60 1   
    57    22    71 1   
    58    23    24 1   
    59    23    27 1   
    60    23    61 1   
    61    24    25 1   
    62    24    62 1   
    63    24    63 1   
    64    25    31 1   
    65    25    64 1   
    66    25    65 1   
    67    26    27 1   
    68    26    31 1   
    69    26    66 1   
    70    26    67 1   
    71    27    68 1   
    72    27    69 1   
    73    30    71 1   
    74    31    70 1   
    75    57    71 1   
    76    58    71 1   
@<TRIPOS>SUBSTRUCTURE
     1 RD0         1 TEMP              0 ****  ****    0 ROOT
