@<TRIPOS>MOLECULE
RD1
   31    32     1     0     0
SMALL
abcg2


@<TRIPOS>ATOM
      1 C8           1.6660   -32.1140    50.5120 ca         1 RD1      -0.096000
      2 C7           0.6780   -31.5560    51.2810 ca         1 RD1      -0.209000
      3 C6           1.0030   -30.6380    52.3160 ca         1 RD1       0.208100
      4 C5           2.3240   -30.3160    52.5400 ca         1 RD1      -0.219000
      5 C8A          3.0350   -31.7960    50.7110 ca         1 RD1      -0.052000
      6 C1           4.0630   -32.3420    49.9110 ca         1 RD1      -0.109000
      7 C4A          3.3600   -30.8730    51.7520 ca         1 RD1      -0.057000
      8 C4           4.7280   -30.5590    51.9430 ca         1 RD1      -0.198000
      9 C3           5.6970   -31.1110    51.1410 ca         1 RD1      -0.094000
     10 C2           5.3920   -32.0130    50.0850 ca         1 RD1       0.130700
     11 O1           0.0400   -30.0330    53.0600 os         1 RD1      -0.518500
     12 C9           6.4850   -32.5320    49.1920 c3         1 RD1      -0.637400
     13 P10         -1.2840   -30.8740    53.7750 p5         1 RD1       1.318900
     14 P11          6.3140   -31.8750    47.4250 p5         1 RD1       1.367500
     15 P12          6.8390   -34.3620    49.5180 p5         1 RD1       1.367500
     16 O13         -0.6380   -32.0410    54.5050 o          1 RD1      -0.946500
     17 O14         -1.8430   -29.7790    54.6660 o          1 RD1      -0.946500
     18 O15         -2.1930   -31.2760    52.6240 o          1 RD1      -0.946500
     19 O16          5.3850   -32.8090    46.6350 o          1 RD1      -0.972167
     20 O17          7.7410   -31.8320    46.8520 o          1 RD1      -0.972167
     21 O18          5.7300   -30.4590    47.5750 o          1 RD1      -0.972167
     22 O19          5.5340   -35.1530    49.3560 o          1 RD1      -0.972167
     23 O20          7.3510   -34.3740    50.9710 o          1 RD1      -0.972167
     24 O21          7.9220   -34.8110    48.5260 o          1 RD1      -0.972167
     25 H8           1.4060   -32.8120    49.7230 ha         1 RD1       0.072000
     26 H7          -0.3640   -31.7990    51.1270 ha         1 RD1       0.113000
     27 H5           2.5710   -29.6170    53.3310 ha         1 RD1       0.052000
     28 H11          3.7900   -33.0300    49.1230 ha         1 RD1       0.148000
     29 H4           5.0000   -29.8660    52.7320 ha         1 RD1       0.019000
     30 H3           6.7350   -30.8430    51.3040 ha         1 RD1       0.059000
     31 H9           7.4120   -32.0550    49.5290 hc         1 RD1       0.007700
@<TRIPOS>BOND
     1     1     2 ar  
     2     1     5 ar  
     3     1    25 1   
     4     2     3 ar  
     5     2    26 1   
     6     3     4 ar  
     7     3    11 1   
     8     4     7 ar  
     9     4    27 1   
    10     5     6 ar  
    11     5     7 ar  
    12     6    10 ar  
    13     6    28 1   
    14     7     8 ar  
    15     8     9 ar  
    16     8    29 1   
    17     9    10 ar  
    18     9    30 1   
    19    10    12 1   
    20    11    13 1   
    21    12    14 1   
    22    12    15 1   
    23    12    31 1   
    24    13    16 1   
    25    13    17 1   
    26    13    18 1   
    27    14    19 1   
    28    14    20 1   
    29    14    21 1   
    30    15    22 1   
    31    15    23 1   
    32    15    24 1   
@<TRIPOS>SUBSTRUCTURE
     1 RD1         1 TEMP              0 ****  ****    0 ROOT
