@<TRIPOS>MOLECULE
RD1
   31    32     1     0     0
SMALL
No Charge or Current Charge


@<TRIPOS>ATOM
      1 C8           1.7530   -32.2400    50.6640 ca         1 RD1      -0.096000
      2 C7           0.7590   -31.7650    51.5400 ca         1 RD1      -0.209000
      3 C6           1.0960   -30.8720    52.5800 ca         1 RD1       0.208100
      4 C5           2.4350   -30.4630    52.7320 ca         1 RD1      -0.219000
      5 C8A          3.0900   -31.8280    50.8190 ca         1 RD1      -0.052000
      6 C1           4.0870   -32.3020    49.9430 ca         1 RD1      -0.109000
      7 C4A          3.4310   -30.9360    51.8570 ca         1 RD1      -0.057000
      8 C4           4.7660   -30.5250    52.0120 ca         1 RD1      -0.198000
      9 C3           5.7570   -31.0010    51.1350 ca         1 RD1      -0.094000
     10 C2           5.4320   -31.8950    50.0900 ca         1 RD1       0.130700
     11 O1           0.1720   -30.3730    53.4690 os         1 RD1      -0.518500
     12 C9           6.5270   -32.3910    49.1530 c3         1 RD1      -0.637400
     13 P10         -1.4180   -30.6490    53.5540 p5         1 RD1       1.318900
     14 P11          6.2160   -32.1160    47.4100 p5         1 RD1       1.367500
     15 P12          6.9350   -34.1210    49.3730 p5         1 RD1       1.367500
     16 O13         -1.6810   -32.0980    53.7840 o          1 RD1      -0.946500
     17 O14         -1.9800   -29.8720    54.6950 o          1 RD1      -0.946500
     18 O15         -2.0890   -30.2120    52.2980 o          1 RD1      -0.946500
     19 O16          5.3120   -33.1230    46.7860 o          1 RD1      -0.972167
     20 O17          7.5060   -32.0290    46.6650 o          1 RD1      -0.972167
     21 O18          5.5760   -30.7710    47.3080 o          1 RD1      -0.972167
     22 O19          5.7270   -34.9920    49.2990 o          1 RD1      -0.972167
     23 O20          7.4760   -34.2290    50.7600 o          1 RD1      -0.972167
     24 O21          7.9880   -34.6000    48.4310 o          1 RD1      -0.972167
     25 H8           1.4810   -32.9270    49.8660 ha         1 RD1       0.072000
     26 H7          -0.2640   -32.0980    51.3990 ha         1 RD1       0.113000
     27 H5           2.6970   -29.7760    53.5320 ha         1 RD1       0.052000
     28 H11          3.8180   -32.9890    49.1460 ha         1 RD1       0.148000
     29 H4           5.0400   -29.8380    52.8090 ha         1 RD1       0.019000
     30 H3           6.7830   -30.6710    51.2710 ha         1 RD1       0.059000
     31 H9           7.4530   -31.8460    49.3610 hc         1 RD1       0.007700
@<TRIPOS>BOND
     1     1     2 ar  
     2     1     5 ar  
     3     1    25 1   
     4     2     3 ar  
     5     2    26 1   
     6     3     4 ar  
     7     3    11 1   
     8     4     7 ar  
     9     4    27 1   
    10     5     6 ar  
    11     5     7 ar  
    12     6    10 ar  
    13     6    28 1   
    14     7     8 ar  
    15     8     9 ar  
    16     8    29 1   
    17     9    10 ar  
    18     9    30 1   
    19    10    12 1   
    20    11    13 1   
    21    12    14 1   
    22    12    15 1   
    23    12    31 1   
    24    13    16 1   
    25    13    17 1   
    26    13    18 1   
    27    14    19 1   
    28    14    20 1   
    29    14    21 1   
    30    15    22 1   
    31    15    23 1   
    32    15    24 1   
@<TRIPOS>SUBSTRUCTURE
     1 RD1         1 TEMP              0 ****  ****    0 ROOT
