@<TRIPOS>MOLECULE
RD2
   28    29     1     0     0
SMALL
No Charge or Current Charge


@<TRIPOS>ATOM
      1 O1           6.2740   -33.3520    53.1790 oh         1 RD2      -0.596100
      2 C2           6.7900   -34.5640    53.5200 ca         1 RD2      -0.058900
      3 C3           6.1890   -35.7470    53.0550 ca         1 RD2      -0.109000
      4 C4           6.7290   -36.9980    53.4120 ca         1 RD2      -0.066000
      5 C5           7.8730   -37.0610    54.2380 ca         1 RD2      -0.008000
      6 C6           8.4680   -35.8700    54.6990 ca         1 RD2      -0.121000
      7 C7           7.9260   -34.6230    54.3400 ca         1 RD2      -0.213000
      8 C9           6.1350   -38.1870    52.9510 ca         1 RD2      -0.200000
      9 C10          6.6800   -39.4330    53.3130 ca         1 RD2       0.011000
     10 C11          7.8250   -39.5090    54.1380 ca         1 RD2       0.155700
     11 C12          8.4140   -38.3100    54.5960 ca         1 RD2      -0.203000
     12 C13          8.4280   -40.8430    54.5430 c3         1 RD2      -0.538400
     13 P14          9.2140   -41.7060    53.1850 p5         1 RD2       1.318000
     14 P15          7.2760   -41.9560    55.3460 p5         1 RD2       1.318000
     15 O16         10.3650   -40.8500    52.7730 o          1 RD2      -0.935667
     16 O17          8.2970   -41.8200    52.0150 o          1 RD2      -0.935667
     17 O18          9.7410   -43.0450    53.5750 o          1 RD2      -0.935667
     18 O19          6.3870   -42.6760    54.3920 o          1 RD2      -0.935667
     19 O20          6.4350   -41.1100    56.2430 o          1 RD2      -0.935667
     20 O21          8.0130   -42.9180    56.2170 o          1 RD2      -0.935667
     21 H1           6.8260   -32.6550    53.5960 ho         1 RD2       0.404000
     22 H3           5.3090   -35.6950    52.4190 ha         1 RD2       0.066000
     23 H6           9.3490   -35.9100    55.3350 ha         1 RD2       0.074000
     24 H7           8.3930   -33.7110    54.7020 ha         1 RD2       0.034000
     25 H9           5.2540   -38.1500    52.3160 ha         1 RD2       0.052000
     26 H10          6.2130   -40.3440    52.9500 ha         1 RD2       0.163000
     27 H121         9.2950   -38.3510    55.2310 ha         1 RD2       0.092000
     28 H23          9.2200   -40.6880    55.2800 hc         1 RD2       0.039700
@<TRIPOS>BOND
     1     1     2 1   
     2     1    21 1   
     3     2     3 ar  
     4     2     7 ar  
     5     3     4 ar  
     6     3    22 1   
     7     4     5 ar  
     8     4     8 ar  
     9     5     6 ar  
    10     5    11 ar  
    11     6     7 ar  
    12     6    23 1   
    13     7    24 1   
    14     8     9 ar  
    15     8    25 1   
    16     9    10 ar  
    17     9    26 1   
    18    10    11 ar  
    19    10    12 1   
    20    11    27 1   
    21    12    13 1   
    22    12    14 1   
    23    12    28 1   
    24    13    15 1   
    25    13    16 1   
    26    13    17 1   
    27    14    18 1   
    28    14    19 1   
    29    14    20 1   
@<TRIPOS>SUBSTRUCTURE
     1 RD2         1 TEMP              0 ****  ****    0 ROOT
