@<TRIPOS>MOLECULE
RD2
   28    29     1     0     0
SMALL
abcg2


@<TRIPOS>ATOM
      1 O1           6.3060   -33.3740    53.1710 oh         1 RD2      -0.596100
      2 C2           6.8240   -34.5930    53.5290 ca         1 RD2      -0.058900
      3 C3           6.2130   -35.7320    53.0620 ca         1 RD2      -0.109000
      4 C4           6.7170   -37.0080    53.4060 ca         1 RD2      -0.066000
      5 C5           7.8650   -37.1100    54.2480 ca         1 RD2      -0.008000
      6 C6           8.4650   -35.9120    54.7070 ca         1 RD2      -0.121000
      7 C7           7.9650   -34.6830    54.3590 ca         1 RD2      -0.213000
      8 C9           6.1310   -38.2150    52.9450 ca         1 RD2      -0.200000
      9 C10          6.6520   -39.4340    53.2940 ca         1 RD2       0.011000
     10 C11          7.7960   -39.5580    54.1310 ca         1 RD2       0.155700
     11 C12          8.3660   -38.3890    54.5880 ca         1 RD2      -0.203000
     12 C13          8.3640   -40.8990    54.4890 c3         1 RD2      -0.538400
     13 P14          9.3290   -41.6260    53.0340 p5         1 RD2       1.318000
     14 P15          7.1570   -41.9540    55.4970 p5         1 RD2       1.318000
     15 O16         10.3890   -40.5540    52.7250 o          1 RD2      -0.935667
     16 O17          8.3690   -41.8450    51.8550 o          1 RD2      -0.935667
     17 O18          9.9610   -42.9340    53.5280 o          1 RD2      -0.935667
     18 O19          6.2440   -42.7390    54.5440 o          1 RD2      -0.935667
     19 O20          6.3710   -40.9430    56.3500 o          1 RD2      -0.935667
     20 O21          8.0380   -42.8660    56.3660 o          1 RD2      -0.935667
     21 H1           6.8320   -32.6670    53.5680 ho         1 RD2       0.404000
     22 H3           5.3400   -35.6500    52.4250 ha         1 RD2       0.066000
     23 H6           9.3400   -35.9760    55.3450 ha         1 RD2       0.074000
     24 H7           8.4360   -33.7730    54.7150 ha         1 RD2       0.034000
     25 H9           5.2550   -38.1580    52.3080 ha         1 RD2       0.052000
     26 H10          6.1890   -40.3390    52.9270 ha         1 RD2       0.163000
     27 H121         9.2420   -38.4390    55.2270 ha         1 RD2       0.092000
     28 H23          9.1620   -40.7100    55.2160 hc         1 RD2       0.039700
@<TRIPOS>BOND
     1     1     2 1   
     2     1    21 1   
     3     2     3 ar  
     4     2     7 ar  
     5     3     4 ar  
     6     3    22 1   
     7     4     5 ar  
     8     4     8 ar  
     9     5     6 ar  
    10     5    11 ar  
    11     6     7 ar  
    12     6    23 1   
    13     7    24 1   
    14     8     9 ar  
    15     8    25 1   
    16     9    10 ar  
    17     9    26 1   
    18    10    11 ar  
    19    10    12 1   
    20    11    27 1   
    21    12    13 1   
    22    12    14 1   
    23    12    28 1   
    24    13    15 1   
    25    13    16 1   
    26    13    17 1   
    27    14    18 1   
    28    14    19 1   
    29    14    20 1   
@<TRIPOS>SUBSTRUCTURE
     1 RD2         1 TEMP              0 ****  ****    0 ROOT
