@<TRIPOS>MOLECULE
RD3
   25    25     1     0     0
SMALL
No Charge or Current Charge


@<TRIPOS>ATOM
      1 C1           0.8640   -31.9720    51.4270 c3         1 RD3      -0.651400
      2 C2           1.3940   -33.3840    51.6620 ca         1 RD3       0.097700
      3 C3           0.6870   -34.4950    51.1470 ca         1 RD3      -0.113500
      4 C4           1.1560   -35.8080    51.3470 ca         1 RD3      -0.215000
      5 C5           2.3460   -36.0350    52.0700 ca         1 RD3       0.162100
      6 C6           3.0530   -34.9350    52.5850 ca         1 RD3      -0.215000
      7 C7           2.5840   -33.6230    52.3850 ca         1 RD3      -0.113500
      8 P8           2.0210   -30.8210    50.6770 p5         1 RD3       1.372500
      9 P9           0.1940   -31.1810    52.8940 p5         1 RD3       1.372500
     10 O10          2.8580   -37.2920    52.3010 os         1 RD3      -0.539500
     11 P11          2.2980   -38.7420    51.8490 p5         1 RD3       1.332900
     12 O12          3.2290   -39.7910    52.3530 o          1 RD3      -0.960500
     13 O14          2.2310   -38.8390    50.3630 o          1 RD3      -0.960500
     14 O15          0.9470   -38.9870    52.4300 o          1 RD3      -0.960500
     15 O16          2.9730   -30.1880    51.6340 o          1 RD3      -0.982500
     16 O17          1.2790   -29.7780    49.9080 o          1 RD3      -0.982500
     17 O18          2.8020   -31.6030    49.6730 o          1 RD3      -0.982500
     18 O19         -0.3080   -29.8000    52.6420 o          1 RD3      -0.982500
     19 O20         -0.9700   -32.0220    53.3040 o          1 RD3      -0.982500
     20 O21          1.1620   -31.1900    54.0290 o          1 RD3      -0.982500
     21 H3          -0.2320   -34.3410    50.5880 ha         1 RD3       0.087000
     22 H4           0.5840   -36.6330    50.9350 ha         1 RD3       0.055500
     23 H6           3.9710   -35.0950    53.1440 ha         1 RD3       0.055500
     24 H7           3.1500   -32.7900    52.7920 ha         1 RD3       0.087000
     25 H1           0.0270   -32.0210    50.7220 hc         1 RD3       0.000700
@<TRIPOS>BOND
     1     1     2 1   
     2     1     8 1   
     3     1     9 1   
     4     1    25 1   
     5     2     3 ar  
     6     2     7 ar  
     7     3     4 ar  
     8     3    21 1   
     9     4     5 ar  
    10     4    22 1   
    11     5     6 ar  
    12     5    10 1   
    13     6     7 ar  
    14     6    23 1   
    15     7    24 1   
    16     8    15 1   
    17     8    16 1   
    18     8    17 1   
    19     9    18 1   
    20     9    19 1   
    21     9    20 1   
    22    10    11 1   
    23    11    12 1   
    24    11    13 1   
    25    11    14 1   
@<TRIPOS>SUBSTRUCTURE
     1 RD3         1 TEMP              0 ****  ****    0 ROOT
