@<TRIPOS>MOLECULE
RD3
   25    25     1     0     0
SMALL
abcg2


@<TRIPOS>ATOM
      1 C1           0.8730   -31.9430    51.5120 c3         1 RD3      -0.651400
      2 C2           1.2920   -33.3560    51.8330 ca         1 RD3       0.097700
      3 C3           0.5720   -34.4590    51.3610 ca         1 RD3      -0.113500
      4 C4           0.9740   -35.7740    51.5870 ca         1 RD3      -0.215000
      5 C5           2.1370   -36.0370    52.3130 ca         1 RD3       0.162100
      6 C6           2.8540   -34.9490    52.8200 ca         1 RD3      -0.215000
      7 C7           2.4360   -33.6440    52.5880 ca         1 RD3      -0.113500
      8 P8           2.0740   -31.1510    50.2750 p5         1 RD3       1.372500
      9 P9           0.3000   -31.0420    53.0720 p5         1 RD3       1.372500
     10 O10          2.6020   -37.2910    52.5830 os         1 RD3      -0.539500
     11 P11          2.4940   -38.6230    51.5120 p5         1 RD3       1.332900
     12 O12          3.3860   -39.6210    52.2300 o          1 RD3      -0.960500
     13 O14          3.0460   -38.1090    50.1910 o          1 RD3      -0.960500
     14 O15          1.0220   -39.0060    51.4750 o          1 RD3      -0.960500
     15 O16          3.3510   -30.7320    51.0200 o          1 RD3      -0.982500
     16 O17          1.3410   -29.9600    49.6370 o          1 RD3      -0.982500
     17 O18          2.3430   -32.2580    49.2370 o          1 RD3      -0.982500
     18 O19         -0.2950   -29.6930    52.6390 o          1 RD3      -0.982500
     19 O20         -0.7790   -31.9710    53.6600 o          1 RD3      -0.982500
     20 O21          1.5030   -30.8780    54.0140 o          1 RD3      -0.982500
     21 H3          -0.3310   -34.2840    50.7840 ha         1 RD3       0.087000
     22 H4           0.3990   -36.6050    51.2010 ha         1 RD3       0.055500
     23 H6           3.7530   -35.1430    53.3960 ha         1 RD3       0.055500
     24 H7           3.0070   -32.8220    52.9950 ha         1 RD3       0.087000
     25 H1          -0.0510   -32.0170    50.9260 hc         1 RD3       0.000700
@<TRIPOS>BOND
     1     1     2 1   
     2     1     8 1   
     3     1     9 1   
     4     1    25 1   
     5     2     3 ar  
     6     2     7 ar  
     7     3     4 ar  
     8     3    21 1   
     9     4     5 ar  
    10     4    22 1   
    11     5     6 ar  
    12     5    10 1   
    13     6     7 ar  
    14     6    23 1   
    15     7    24 1   
    16     8    15 1   
    17     8    16 1   
    18     8    17 1   
    19     9    18 1   
    20     9    19 1   
    21     9    20 1   
    22    10    11 1   
    23    11    12 1   
    24    11    13 1   
    25    11    14 1   
@<TRIPOS>SUBSTRUCTURE
     1 RD3         1 TEMP              0 ****  ****    0 ROOT
