@<TRIPOS>MOLECULE
RD4
   24    24     1     0     0
SMALL
bcc


@<TRIPOS>ATOM
      1 C4          29.8030     9.4010    59.2640 ca         1 RD4      -0.151000
      2 C5          29.0830     8.6860    60.2230 ca         1 RD4       0.138100
      3 C6          29.2320     7.3040    60.3040 ca         1 RD4      -0.204000
      4 N1          30.5300     4.5190    58.4320 n2         1 RD4      -0.822100
      5 C7          27.5060     8.7370    62.0120 c3         1 RD4       0.142400
      6 C8          26.7100     9.7740    62.7690 c3         1 RD4      -0.095100
      7 N           30.0190     4.6080    60.7310 nv         1 RD4      -0.966800
      8 C1          30.0930     6.6380    59.4290 ca         1 RD4      -0.107900
      9 O           28.2690     9.4060    61.0170 os         1 RD4      -0.326900
     10 C3          30.6530     8.7330    58.4010 ca         1 RD4      -0.104000
     11 C2          30.8010     7.3540    58.4720 ca         1 RD4      -0.119000
     12 H1          29.6880    10.4760    59.2020 ha         1 RD4       0.145000
     13 H2          28.6650     6.7310    61.0240 ha         1 RD4       0.139000
     14 H3          30.6380     3.5250    58.6150 hn         1 RD4       0.369400
     15 H4          26.8360     8.0070    61.5460 h1         1 RD4       0.032700
     16 H5          28.1650     8.1910    62.6950 h1         1 RD4       0.032700
     17 H6          26.0960     9.2800    63.5210 hc         1 RD4       0.047700
     18 H7          27.3620    10.4820    63.2800 hc         1 RD4       0.047700
     19 H8          26.0460    10.3280    62.1060 hc         1 RD4       0.047700
     20 H9          30.2120     5.1650    61.5470 hn         1 RD4       0.404300
     21 H10         30.2430     3.6320    60.8500 hn         1 RD4       0.404300
     22 H11         31.2070     9.2970    57.6630 ha         1 RD4       0.135000
     23 H12         31.4660     6.8360    57.7950 ha         1 RD4       0.154000
     24 C           30.2500     5.1570    59.5020 ce         1 RD4       0.655800
@<TRIPOS>BOND
     1     1     2 ar  
     2     1    10 ar  
     3     1    12 1   
     4     2     3 ar  
     5     2     9 1   
     6     3     8 ar  
     7     3    13 1   
     8     4    14 1   
     9     4    24 2   
    10     5     6 1   
    11     5     9 1   
    12     5    15 1   
    13     5    16 1   
    14     6    17 1   
    15     6    18 1   
    16     6    19 1   
    17     7    20 1   
    18     7    21 1   
    19     7    24 1   
    20     8    11 ar  
    21     8    24 1   
    22    10    11 ar  
    23    10    22 1   
    24    11    23 1   
@<TRIPOS>SUBSTRUCTURE
     1 RD4         1 TEMP              0 ****  ****    0 ROOT
