@<TRIPOS>MOLECULE
RD4
   24    24     1     0     0
SMALL
No Charge or Current Charge


@<TRIPOS>ATOM
      1 C4          29.8040     9.4200    59.2540 ca         1 RD4      -0.133000
      2 C5          29.0940     8.6920    60.2190 ca         1 RD4       0.138100
      3 C6          29.2520     7.2900    60.2960 ca         1 RD4      -0.186000
      4 N1          30.7910     4.4330    58.5090 n2         1 RD4      -0.822100
      5 C7          27.4760     8.7510    62.0840 c3         1 RD4       0.165600
      6 C8          26.6740     9.8420    62.8120 c3         1 RD4      -0.095100
      7 N           29.9830     4.4680    60.6070 nv         1 RD4      -1.077200
      8 C1          30.1310     6.6090    59.4140 ca         1 RD4      -0.107900
      9 O           28.2530     9.3940    61.0600 os         1 RD4      -0.350100
     10 C3          30.6610     8.7600    58.3610 ca         1 RD4      -0.086000
     11 C2          30.8180     7.3660    58.4350 ca         1 RD4      -0.101000
     12 H1          29.6830    10.4980    59.1940 ha         1 RD4       0.127000
     13 H2          28.6860     6.7210    61.0270 ha         1 RD4       0.121000
     14 H3          30.6060     3.4420    58.6980 hn         1 RD4       0.369400
     15 H4          26.7830     8.0200    61.6460 h1         1 RD4       0.032700
     16 H5          28.1270     8.2360    62.8020 h1         1 RD4       0.032700
     17 H6          26.0630     9.3970    63.6060 hc         1 RD4       0.047700
     18 H7          27.3480    10.5770    63.2680 hc         1 RD4       0.047700
     19 H8          26.0070    10.3620    62.1140 hc         1 RD4       0.047700
     20 H9          29.8720     5.0720    61.4130 hn         1 RD4       0.459500
     21 H10         30.4810     3.6030    60.7840 hn         1 RD4       0.459500
     22 H11         31.2040     9.3280    57.6080 ha         1 RD4       0.117000
     23 H12         31.4860     6.8740    57.7310 ha         1 RD4       0.136000
     24 C           30.2920     5.1120    59.4590 ce         1 RD4       0.655800
@<TRIPOS>BOND
     1     1     2 ar  
     2     1    10 ar  
     3     1    12 1   
     4     2     3 ar  
     5     2     9 1   
     6     3     8 ar  
     7     3    13 1   
     8     4    14 1   
     9     4    24 2   
    10     5     6 1   
    11     5     9 1   
    12     5    15 1   
    13     5    16 1   
    14     6    17 1   
    15     6    18 1   
    16     6    19 1   
    17     7    20 1   
    18     7    21 1   
    19     7    24 1   
    20     8    11 ar  
    21     8    24 1   
    22    10    11 ar  
    23    10    22 1   
    24    11    23 1   
@<TRIPOS>SUBSTRUCTURE
     1 RD4         1 TEMP              0 ****  ****    0 ROOT
