@<TRIPOS>MOLECULE
RD5
   45    47     1     0     0
SMALL
abcg2


@<TRIPOS>ATOM
      1 N1         -20.5240     4.8540    26.5350 ns         1 RD5      -0.168000
      2 C4         -22.8940     3.7760    32.4190 ca         1 RD5      -0.097000
      3 C5         -22.9420     2.7320    31.5070 ca         1 RD5       0.135000
      4 C6         -22.7190     2.9450    30.1570 ca         1 RD5      -0.095000
      5 C7         -22.4530     4.2300    29.6830 ca         1 RD5      -0.036300
      6 C8         -22.2140     4.4180    28.2100 c3         1 RD5      -0.131100
      7 C10        -19.2350     5.0570    25.9780 ca         1 RD5      -0.074000
      8 C13        -17.2140     6.3460    25.6420 ca         1 RD5      -0.090000
      9 C15        -16.8970     8.5120    26.6580 ca         1 RD5      -0.105000
     10 C17        -18.9700     7.3130    27.0380 ca         1 RD5      -0.084000
     11 O2         -19.8630     4.7390    28.7030 o          1 RD5      -0.570100
     12 C9         -20.7510     4.6790    27.8650 c          1 RD5       0.598100
     13 C18        -18.4990     6.2420    26.2440 ca         1 RD5      -0.001000
     14 C16        -18.1830     8.4190    27.2360 ca         1 RD5      -0.093000
     15 C14        -16.4230     7.4950    25.8720 ca         1 RD5      -0.086000
     16 C12        -16.7770     5.2910    24.8040 ca         1 RD5       0.358900
     17 N2         -17.4890     4.2170    24.5480 nb         1 RD5      -0.653000
     18 C11        -18.7030     4.1060    25.1430 ca         1 RD5       0.305900
     19 C3         -22.6240     5.0510    31.9440 ca         1 RD5      -0.097000
     20 C2         -22.4090     5.2980    30.5880 ca         1 RD5      -0.122300
     21 C1         -22.1640     6.7250    30.1460 c3         1 RD5       0.256100
     22 N          -23.2900     7.6460    30.3800 n7         1 RD5      -0.891300
     23 S          -24.6730     7.5490    29.5110 s6         1 RD5       1.227100
     24 O          -25.4460     8.7220    29.8510 o          1 RD5      -0.544500
     25 O1         -24.2870     7.3300    28.1340 o          1 RD5      -0.544500
     26 C          -25.5970     6.1310    30.0530 c3         1 RD5      -0.387100
     27 H1         -21.2830     4.6660    25.8960 hn         1 RD5       0.159000
     28 H2         -23.0610     3.5990    33.4720 ha         1 RD5       0.136000
     29 H3         -22.7570     2.1130    29.4660 ha         1 RD5       0.133000
     30 H4         -22.8080     5.2470    27.8170 hc         1 RD5       0.082700
     31 H5         -22.5340     3.5280    27.6650 hc         1 RD5       0.082700
     32 H6         -16.2940     9.3930    26.8340 ha         1 RD5       0.118000
     33 H7         -19.9520     7.2570    27.4840 ha         1 RD5       0.122000
     34 H8         -18.5520     9.2370    27.8430 ha         1 RD5       0.117000
     35 H9         -15.4440     7.5570    25.4110 ha         1 RD5       0.118000
     36 H10        -15.8000     5.3650    24.3360 h4         1 RD5       0.022100
     37 H11        -19.2670     3.2040    24.9300 h4         1 RD5       0.019100
     38 H12        -22.5840     5.8740    32.6480 ha         1 RD5       0.116000
     39 H13        -21.3250     7.1440    30.7000 h1         1 RD5       0.083200
     40 H14        -21.9100     6.7850    29.0940 h1         1 RD5       0.083200
     41 H15        -23.4600     7.8970    31.3470 hn         1 RD5       0.484000
     42 H16        -25.7870     6.2320    31.1200 h1         1 RD5       0.102367
     43 H17        -26.5320     6.1330    29.4930 h1         1 RD5       0.102367
     44 H18        -25.0260     5.2300    29.8430 h1         1 RD5       0.102367
     45 CL         -23.2870     1.1110    32.0740 cl         1 RD5      -0.198000
@<TRIPOS>BOND
     1     1     7 1   
     2     1    12 1   
     3     1    27 1   
     4     2     3 ar  
     5     2    19 ar  
     6     2    28 1   
     7     3     4 ar  
     8     3    45 1   
     9     4     5 ar  
    10     4    29 1   
    11     5     6 1   
    12     5    20 ar  
    13     6    12 1   
    14     6    30 1   
    15     6    31 1   
    16     7    13 ar  
    17     7    18 ar  
    18     8    13 ar  
    19     8    15 ar  
    20     8    16 ar  
    21     9    14 ar  
    22     9    15 ar  
    23     9    32 1   
    24    10    13 ar  
    25    10    14 ar  
    26    10    33 1   
    27    11    12 2   
    28    14    34 1   
    29    15    35 1   
    30    16    17 ar  
    31    16    36 1   
    32    17    18 ar  
    33    18    37 1   
    34    19    20 ar  
    35    19    38 1   
    36    20    21 1   
    37    21    22 1   
    38    21    39 1   
    39    21    40 1   
    40    22    23 1   
    41    22    41 1   
    42    23    24 2   
    43    23    25 2   
    44    23    26 1   
    45    26    42 1   
    46    26    43 1   
    47    26    44 1   
@<TRIPOS>SUBSTRUCTURE
     1 RD5         1 TEMP              0 ****  ****    0 ROOT
