@<TRIPOS>MOLECULE
RD5
   45    47     1     0     0
SMALL
No Charge or Current Charge


@<TRIPOS>ATOM
      1 N1         -20.2160     5.0670    27.0180 ns         1 RD5      -0.168000
      2 C4         -23.0880     3.0080    31.5290 ca         1 RD5      -0.097000
      3 C5         -22.9940     2.5050    30.2260 ca         1 RD5       0.135000
      4 C6         -22.7520     3.3730    29.1540 ca         1 RD5      -0.095000
      5 C7         -22.6070     4.7610    29.3640 ca         1 RD5      -0.036300
      6 C8         -22.3300     5.6420    28.1410 c3         1 RD5      -0.131100
      7 C10        -18.8580     5.0230    26.6000 ca         1 RD5      -0.074000
      8 C13        -16.7960     5.9800    25.7550 ca         1 RD5      -0.090000
      9 C15        -16.6440     8.3250    25.1140 ca         1 RD5      -0.105000
     10 C17        -18.7530     7.4200    25.9320 ca         1 RD5      -0.084000
     11 O2         -20.2080     6.6880    28.6440 o          1 RD5      -0.570100
     12 C9         -20.8240     5.8730    27.9680 c          1 RD5       0.598100
     13 C18        -18.1540     6.1520    26.1090 ca         1 RD5      -0.001000
     14 C16        -17.9980     8.5000    25.4410 ca         1 RD5      -0.093000
     15 C14        -16.0430     7.0650    25.2660 ca         1 RD5      -0.086000
     16 C12        -16.2080     4.7070    25.8860 ca         1 RD5       0.358900
     17 N2         -16.8830     3.6210    26.3270 nb         1 RD5      -0.653000
     18 C11        -18.1800     3.7880    26.6690 ca         1 RD5       0.305900
     19 C3         -22.9460     4.3850    31.7570 ca         1 RD5      -0.097000
     20 C2         -22.7180     5.2790    30.6860 ca         1 RD5      -0.122300
     21 C1         -22.5680     6.7670    31.0220 c3         1 RD5       0.256100
     22 N          -23.7930     7.3420    31.6150 n7         1 RD5      -0.891300
     23 S          -25.1310     7.6670    30.6770 s6         1 RD5       1.227100
     24 O          -26.0420     8.4250    31.5350 o          1 RD5      -0.544500
     25 O1         -24.6350     8.2560    29.4310 o          1 RD5      -0.544500
     26 C          -25.8200     6.0600    30.3380 c3         1 RD5      -0.387100
     27 H1         -20.8220     4.3870    26.5760 hn         1 RD5       0.159000
     28 H2         -23.2670     2.3310    32.3610 ha         1 RD5       0.136000
     29 H3         -22.6740     2.9590    28.1520 ha         1 RD5       0.133000
     30 H4         -22.8340     6.6080    28.2290 hc         1 RD5       0.082700
     31 H5         -22.7190     5.1410    27.2470 hc         1 RD5       0.082700
     32 H6         -16.0630     9.1630    24.7340 ha         1 RD5       0.118000
     33 H7         -19.8020     7.5830    26.1580 ha         1 RD5       0.122000
     34 H8         -18.4660     9.4730    25.3110 ha         1 RD5       0.117000
     35 H9         -14.9960     6.9320    24.9990 ha         1 RD5       0.118000
     36 H10        -15.1640     4.5450    25.6180 h4         1 RD5       0.022100
     37 H11        -18.6950     2.8980    27.0300 h4         1 RD5       0.019100
     38 H12        -23.0080     4.7570    32.7780 ha         1 RD5       0.116000
     39 H13        -21.7470     6.8460    31.7480 h1         1 RD5       0.083200
     40 H14        -22.2410     7.3550    30.1560 h1         1 RD5       0.083200
     41 H15        -24.1730     6.6750    32.2820 hn         1 RD5       0.484000
     42 H16        -25.9600     5.5360    31.2880 h1         1 RD5       0.102367
     43 H17        -26.7790     6.2240    29.8380 h1         1 RD5       0.102367
     44 H18        -25.1350     5.5230    29.6770 h1         1 RD5       0.102367
     45 Cl         -23.1690     0.7780    29.9370 cl         1 RD5      -0.198000
@<TRIPOS>BOND
     1     1     7 1   
     2     1    12 1   
     3     1    27 1   
     4     2     3 ar  
     5     2    19 ar  
     6     2    28 1   
     7     3     4 ar  
     8     3    45 1   
     9     4     5 ar  
    10     4    29 1   
    11     5     6 1   
    12     5    20 ar  
    13     6    12 1   
    14     6    30 1   
    15     6    31 1   
    16     7    13 ar  
    17     7    18 ar  
    18     8    13 ar  
    19     8    15 ar  
    20     8    16 ar  
    21     9    14 ar  
    22     9    15 ar  
    23     9    32 1   
    24    10    13 ar  
    25    10    14 ar  
    26    10    33 1   
    27    11    12 2   
    28    14    34 1   
    29    15    35 1   
    30    16    17 ar  
    31    16    36 1   
    32    17    18 ar  
    33    18    37 1   
    34    19    20 ar  
    35    19    38 1   
    36    20    21 1   
    37    21    22 1   
    38    21    39 1   
    39    21    40 1   
    40    22    23 1   
    41    22    41 1   
    42    23    24 2   
    43    23    25 2   
    44    23    26 1   
    45    26    42 1   
    46    26    43 1   
    47    26    44 1   
@<TRIPOS>SUBSTRUCTURE
     1 RD5         1 TEMP              0 ****  ****    0 ROOT
