@<TRIPOS>MOLECULE
RD6
   41    45     1     0     0
SMALL
abcg2


@<TRIPOS>ATOM
      1 C02        -43.5730   -31.6480     3.6170 c          1 RD6       0.723000
      2 C03        -44.7100   -31.1190     2.7000 c5         1 RD6       0.060000
      3 C04        -45.7340   -30.2400     3.3940 c5         1 RD6       0.192800
      4 C06        -47.6720   -29.1130     2.2860 ca         1 RD6       0.447900
      5 C07        -48.5130   -28.9490     3.4230 cp         1 RD6      -0.249000
      6 C08        -48.4320   -28.9530     4.8780 cp         1 RD6      -0.013000
      7 C09        -49.7600   -28.7390     5.3460 ca         1 RD6      -0.031200
      8 C10        -50.0940   -28.6670     6.6930 ca         1 RD6      -0.119000
      9 C11        -49.0550   -28.7910     7.5970 ca         1 RD6       0.006100
     10 C12        -47.7310   -28.9650     7.1930 ca         1 RD6      -0.112000
     11 C13        -47.4210   -29.0400     5.8410 ca         1 RD6      -0.064000
     12 C16        -49.8670   -28.6760     3.1100 ca         1 RD6       0.198500
     13 C18        -49.4690   -28.5530     0.9310 ca         1 RD6       0.187900
     14 C20        -45.6290   -29.6810     1.0490 c5         1 RD6       0.233800
     15 C21        -44.2930   -30.2630     1.4940 cy         1 RD6      -0.104000
     16 C22        -43.1340   -29.2600     1.7730 cy         1 RD6      -0.064900
     17 C23        -42.1710   -30.1960     1.0030 cy         1 RD6      -0.094400
     18 C24        -43.3990   -30.9540     0.4400 cy         1 RD6      -0.064900
     19 F25        -45.4210   -32.2320     2.1680 f          1 RD6      -0.281000
     20 N05        -46.3890   -29.5230     2.2980 nh         1 RD6      -0.745300
     21 N15        -50.5960   -28.5940     4.2610 na         1 RD6      -0.338300
     22 N17        -50.3850   -28.4850     1.8930 nb         1 RD6      -0.281000
     23 N19        -48.1820   -28.8480     1.0560 nb         1 RD6      -0.308000
     24 O01        -43.1520   -32.8010     3.3830 o          1 RD6      -0.701000
     25 O26        -43.1720   -30.8510     4.4970 o          1 RD6      -0.701000
     26 BR14       -49.4450   -28.6980     9.4720 br         1 RD6      -0.139100
     27 H041       -45.2030   -29.5630     4.0590 h1         1 RD6       0.076200
     28 H042       -46.4460   -30.8340     3.9640 h1         1 RD6       0.076200
     29 H101       -51.1160   -28.5090     7.0090 ha         1 RD6       0.122000
     30 H121       -46.9430   -29.0350     7.9290 ha         1 RD6       0.132000
     31 H131       -46.3860   -29.1520     5.5660 ha         1 RD6       0.144000
     32 H181       -49.8150   -28.3550    -0.0790 h5         1 RD6       0.033100
     33 H201       -45.5130   -28.7260     0.5370 h1         1 RD6       0.055200
     34 H202       -46.1490   -30.3640     0.3720 h1         1 RD6       0.055200
     35 H221       -42.9010   -29.0570     2.8150 hc         1 RD6       0.052200
     36 H222       -43.3090   -28.3210     1.2470 hc         1 RD6       0.052200
     37 H231       -41.5770   -30.8160     1.6730 hc         1 RD6       0.050200
     38 H232       -41.5080   -29.7270     0.2760 hc         1 RD6       0.050200
     39 H242       -43.6600   -30.6290    -0.5690 hc         1 RD6       0.052200
     40 H241       -43.3760   -32.0410     0.4670 hc         1 RD6       0.052200
     41 H151       -51.5790   -28.3730     4.2980 hn         1 RD6       0.357000
@<TRIPOS>BOND
     1     1     2 1   
     2     1    24 1   
     3     1    25 1   
     4     2     3 1   
     5     2    15 1   
     6     2    19 1   
     7     3    20 1   
     8     3    27 1   
     9     3    28 1   
    10     4     5 ar  
    11     4    20 1   
    12     4    23 ar  
    13     5     6 1   
    14     5    12 ar  
    15     6     7 ar  
    16     6    11 ar  
    17     7     8 ar  
    18     7    21 1   
    19     8     9 ar  
    20     8    29 1   
    21     9    10 ar  
    22     9    26 1   
    23    10    11 ar  
    24    10    30 1   
    25    11    31 1   
    26    12    21 1   
    27    12    22 ar  
    28    13    22 ar  
    29    13    23 ar  
    30    13    32 1   
    31    14    15 1   
    32    14    20 1   
    33    14    33 1   
    34    14    34 1   
    35    15    16 1   
    36    15    18 1   
    37    16    17 1   
    38    16    35 1   
    39    16    36 1   
    40    17    18 1   
    41    17    37 1   
    42    17    38 1   
    43    18    39 1   
    44    18    40 1   
    45    21    41 1   
@<TRIPOS>SUBSTRUCTURE
     1 RD6         1 TEMP              0 ****  ****    0 ROOT
