@<TRIPOS>MOLECULE
RD6
   41    45     1     0     0
SMALL
No Charge or Current Charge


@<TRIPOS>ATOM
      1 C02        -43.9260   -32.3830     2.9250 c          1 RD6       0.723000
      2 C03        -44.9160   -31.4460     2.1200 c5         1 RD6       0.060000
      3 C04        -46.0380   -30.9060     3.0780 c5         1 RD6       0.192800
      4 C06        -47.9230   -29.4330     2.2660 ca         1 RD6       0.447900
      5 C07        -48.7300   -29.0820     3.3690 cp         1 RD6      -0.249000
      6 C08        -48.4320   -28.7840     4.7700 cp         1 RD6      -0.013000
      7 C09        -49.6390   -28.5360     5.4110 ca         1 RD6      -0.031200
      8 C10        -49.7370   -28.1920     6.7620 ca         1 RD6      -0.119000
      9 C11        -48.5320   -28.0910     7.4890 ca         1 RD6       0.006100
     10 C12        -47.2840   -28.3090     6.8540 ca         1 RD6      -0.112000
     11 C13        -47.2240   -28.6470     5.4830 ca         1 RD6      -0.064000
     12 C16        -50.1070   -28.9580     3.1650 ca         1 RD6       0.198500
     13 C18        -49.8310   -29.4250     0.9600 ca         1 RD6       0.187900
     14 C20        -45.5870   -29.3750     1.2770 c5         1 RD6       0.233800
     15 C21        -44.2620   -30.1030     1.6120 cy         1 RD6      -0.104000
     16 C22        -43.2240   -29.3240     2.5100 cy         1 RD6      -0.064900
     17 C23        -42.0890   -30.0310     1.7080 cy         1 RD6      -0.094400
     18 C24        -43.1140   -30.1160     0.5360 cy         1 RD6      -0.064900
     19 F25        -45.4960   -32.1830     1.0620 f          1 RD6      -0.281000
     20 N05        -46.5460   -29.7120     2.3480 nh         1 RD6      -0.745300
     21 N15        -50.6290   -28.6530     4.4270 na         1 RD6      -0.338300
     22 N17        -50.6820   -29.1240     1.9660 nb         1 RD6      -0.281000
     23 N19        -48.4910   -29.5940     1.0500 nb         1 RD6      -0.308000
     24 O01        -43.2840   -33.2340     2.3200 o          1 RD6      -0.701000
     25 O26        -43.8570   -32.3030     4.1460 o          1 RD6      -0.701000
     26 Br14       -48.5820   -27.6240     9.3410 br         1 RD6      -0.139100
     27 H041       -45.6370   -30.6220     4.0590 h1         1 RD6       0.076200
     28 H042       -46.8190   -31.6620     3.2410 h1         1 RD6       0.076200
     29 H101       -50.6980   -28.0000     7.2310 ha         1 RD6       0.122000
     30 H121       -46.3630   -28.2030     7.4230 ha         1 RD6       0.132000
     31 H131       -46.2650   -28.7710     4.9900 ha         1 RD6       0.144000
     32 H181       -50.2720   -29.5600    -0.0260 h5         1 RD6       0.033100
     33 H201       -45.4520   -28.2870     1.2080 h1         1 RD6       0.055200
     34 H202       -45.9720   -29.6980     0.2990 h1         1 RD6       0.055200
     35 H221       -43.2560   -29.5380     3.5840 hc         1 RD6       0.052200
     36 H222       -43.2460   -28.2360     2.3810 hc         1 RD6       0.052200
     37 H231       -41.7650   -30.9950     2.1120 hc         1 RD6       0.050200
     38 H232       -41.1970   -29.4250     1.5160 hc         1 RD6       0.050200
     39 H242       -43.1080   -29.2400    -0.1250 hc         1 RD6       0.052200
     40 H241       -43.0520   -31.0150    -0.0870 hc         1 RD6       0.052200
     41 H151       -51.6190   -28.5210     4.5990 hn         1 RD6       0.357000
@<TRIPOS>BOND
     1     1     2 1   
     2     1    24 1   
     3     1    25 1   
     4     2     3 1   
     5     2    15 1   
     6     2    19 1   
     7     3    20 1   
     8     3    27 1   
     9     3    28 1   
    10     4     5 ar  
    11     4    20 1   
    12     4    23 ar  
    13     5     6 1   
    14     5    12 ar  
    15     6     7 ar  
    16     6    11 ar  
    17     7     8 ar  
    18     7    21 1   
    19     8     9 ar  
    20     8    29 1   
    21     9    10 ar  
    22     9    26 1   
    23    10    11 ar  
    24    10    30 1   
    25    11    31 1   
    26    12    21 1   
    27    12    22 ar  
    28    13    22 ar  
    29    13    23 ar  
    30    13    32 1   
    31    14    15 1   
    32    14    20 1   
    33    14    33 1   
    34    14    34 1   
    35    15    16 1   
    36    15    18 1   
    37    16    17 1   
    38    16    35 1   
    39    16    36 1   
    40    17    18 1   
    41    17    37 1   
    42    17    38 1   
    43    18    39 1   
    44    18    40 1   
    45    21    41 1   
@<TRIPOS>SUBSTRUCTURE
     1 RD6         1 TEMP              0 ****  ****    0 ROOT
