@<TRIPOS>MOLECULE
RD7
   70    75     1     0     0
SMALL
No Charge or Current Charge


@<TRIPOS>ATOM
      1 CAA         -5.0750    -0.4850     1.7710 c6         1 RD7      -0.065900
      2 CAB         -6.4660    -0.9190     2.3050 c6         1 RD7      -0.066900
      3 CAC         -7.5320     0.1660     2.0280 c6         1 RD7      -0.070400
      4 CAD         -7.5720     0.5310     0.5270 c6         1 RD7      -0.066900
      5 CAE         -6.1680     0.9470     0.0130 c6         1 RD7      -0.065900
      6 CAF         -5.0800    -0.1660     0.2330 c6         1 RD7       0.314500
      7 CAH         -4.5050    -2.5790    -0.3860 c5         1 RD7       0.189300
      8 CAI         -5.1150    -3.5590    -1.4740 c5         1 RD7      -0.087400
      9 CAJ         -5.9580    -2.6810    -2.4950 c5         1 RD7      -0.087400
     10 CAK         -5.5190    -1.2580    -2.0540 c5         1 RD7       0.189300
     11 CAL         -3.7080     0.3610    -0.1820 cc         1 RD7      -0.257300
     12 CAN         -3.4790     1.2210    -1.2360 cd         1 RD7       0.279900
     13 CAP         -1.3760     0.9960    -0.5340 cc         1 RD7       0.509900
     14 CAQ          0.0850     1.1910    -0.5000 ca         1 RD7      -0.175500
     15 CAR          0.7120     2.0360    -1.4540 ca         1 RD7      -0.008000
     16 CAS          2.1020     2.1990    -1.3940 ca         1 RD7      -0.109800
     17 CAT          2.9780     2.9770    -2.2200 cc         1 RD7      -0.228200
     18 CAU          4.2680     2.7890    -1.7380 cd         1 RD7      -0.164100
     19 CAW          2.8720     1.5760    -0.4540 ca         1 RD7      -0.036200
     20 CAX          2.2930     0.7330     0.5050 ca         1 RD7      -0.130000
     21 CAY          0.8950     0.5440     0.4770 ca         1 RD7      -0.080000
     22 CBA          5.7660    -0.0160    -0.2080 c3         1 RD7       0.143800
     23 CBC          7.0520    -2.0600     0.3390 c6         1 RD7       0.164300
     24 CBD          8.1200    -2.7150     1.2760 c6         1 RD7       0.156800
     25 CBF          9.1890    -0.5220     1.5800 c6         1 RD7       0.156800
     26 CBG          8.1160     0.1300     0.6450 c6         1 RD7       0.164300
     27 NAG         -5.3970    -1.3980    -0.5680 n3         1 RD7      -0.775600
     28 NAO         -2.1550     1.5820    -1.4360 nd         1 RD7      -0.656000
     29 NAV          4.2090     1.9130    -0.6300 na         1 RD7      -0.088700
     30 NBB          6.8140    -0.6170     0.6590 n3         1 RD7      -0.723600
     31 NBE          9.4090    -1.9660     1.2830 n7         1 RD7      -0.863400
     32 SAM         -2.2030    -0.0250     0.6190 ss         1 RD7      -0.055400
     33 H1          -4.7490     0.4080     2.3230 hc         1 RD7       0.043200
     34 H2          -4.3420    -1.2640     2.0160 hc         1 RD7       0.043200
     35 H3          -6.7680    -1.8660     1.8380 hc         1 RD7       0.043700
     36 H4          -6.4060    -1.1110     3.3850 hc         1 RD7       0.043700
     37 H5          -8.5190    -0.1870     2.3550 hc         1 RD7       0.035700
     38 H6          -7.3090     1.0640     2.6210 hc         1 RD7       0.035700
     39 H7          -7.9450    -0.3240    -0.0540 hc         1 RD7       0.043700
     40 H8          -8.2850     1.3500     0.3640 hc         1 RD7       0.043700
     41 H9          -6.2500     1.2300    -1.0430 hc         1 RD7       0.043200
     42 H10         -5.8570     1.8620     0.5360 hc         1 RD7       0.043200
     43 H11         -4.5510    -3.0100     0.6240 h1         1 RD7       0.035950
     44 H12         -3.4590    -2.3400    -0.6210 h1         1 RD7       0.035950
     45 H13         -4.3160    -4.1110    -1.9820 hc         1 RD7       0.047950
     46 H14         -5.7560    -4.3110    -1.0000 hc         1 RD7       0.047950
     47 H15         -5.7210    -2.8900    -3.5440 hc         1 RD7       0.047950
     48 H16         -7.0350    -2.8260    -2.3520 hc         1 RD7       0.047950
     49 H17         -4.5570    -0.9860    -2.5120 h1         1 RD7       0.035950
     50 H18         -6.2640    -0.5110    -2.3600 h1         1 RD7       0.035950
     51 H19         -4.2290     1.6210    -1.9070 h4         1 RD7       0.039100
     52 H20          0.1400     2.5520    -2.2220 ha         1 RD7       0.138000
     53 H21          2.7020     3.6010    -3.0690 ha         1 RD7       0.209000
     54 H22          5.2080     3.2040    -2.0940 h4         1 RD7       0.211000
     55 H23          2.9010     0.2330     1.2550 ha         1 RD7       0.120000
     56 H24          0.4540    -0.1110     1.2240 ha         1 RD7       0.112000
     57 H25          5.0010     1.4040     1.2480 h1         1 RD7       0.064700
     58 H26          6.1590     2.1020     0.1020 h1         1 RD7       0.064700
     59 H27          4.8750    -0.6580    -0.1920 h1         1 RD7       0.044200
     60 H28          6.1150     0.0150    -1.2500 h1         1 RD7       0.044200
     61 H30          6.1140    -2.6290     0.4280 h1         1 RD7       0.038700
     62 H31          7.7170    -2.7490     2.3000 h1         1 RD7       0.037950
     63 H32          8.2980    -3.7540     0.9600 h1         1 RD7       0.037950
     64 H33         10.1400     0.0230     1.4820 h1         1 RD7       0.037950
     65 H34          8.8570    -0.4160     2.6240 h1         1 RD7       0.037950
     66 H35          7.9720     1.1700     0.9700 h1         1 RD7       0.038700
     67 H36          8.5180     0.1650    -0.3780 h1         1 RD7       0.038700
     68 H39         10.0300    -2.3680     1.9980 hn         1 RD7       0.414000
     69 CAZ          5.3170     1.4070     0.1970 c3         1 RD7       0.073600
     70 H29          7.3910    -2.1640    -0.7030 h1         1 RD7       0.038700
@<TRIPOS>BOND
     1     1     2 1   
     2     1     6 1   
     3     1    33 1   
     4     1    34 1   
     5     2     3 1   
     6     2    35 1   
     7     2    36 1   
     8     3     4 1   
     9     3    37 1   
    10     3    38 1   
    11     4     5 1   
    12     4    39 1   
    13     4    40 1   
    14     5     6 1   
    15     5    41 1   
    16     5    42 1   
    17     6    11 1   
    18     6    27 1   
    19     7     8 1   
    20     7    27 1   
    21     7    43 1   
    22     7    44 1   
    23     8     9 1   
    24     8    45 1   
    25     8    46 1   
    26     9    10 1   
    27     9    47 1   
    28     9    48 1   
    29    10    27 1   
    30    10    49 1   
    31    10    50 1   
    32    11    12 2   
    33    11    32 1   
    34    12    28 1   
    35    12    51 1   
    36    13    14 1   
    37    13    28 2   
    38    13    32 1   
    39    14    15 ar  
    40    14    21 ar  
    41    15    16 ar  
    42    15    52 1   
    43    16    17 1   
    44    16    19 ar  
    45    17    18 2   
    46    17    53 1   
    47    18    29 1   
    48    18    54 1   
    49    19    20 ar  
    50    19    29 1   
    51    20    21 ar  
    52    20    55 1   
    53    21    56 1   
    54    22    30 1   
    55    22    59 1   
    56    22    60 1   
    57    22    69 1   
    58    23    24 1   
    59    23    30 1   
    60    23    61 1   
    61    23    70 1   
    62    24    31 1   
    63    24    62 1   
    64    24    63 1   
    65    25    26 1   
    66    25    31 1   
    67    25    64 1   
    68    25    65 1   
    69    26    30 1   
    70    26    66 1   
    71    26    67 1   
    72    29    69 1   
    73    31    68 1   
    74    57    69 1   
    75    58    69 1   
@<TRIPOS>SUBSTRUCTURE
     1 RD7         1 TEMP              0 ****  ****    0 ROOT
