@<TRIPOS>MOLECULE
RD7
   70    75     1     0     0
SMALL
bcc


@<TRIPOS>ATOM
      1 CAA         -5.1960    -0.1110     1.7060 c6         1 RD7      -0.065900
      2 CAB         -6.5670    -0.5780     2.1820 c6         1 RD7      -0.066900
      3 CAC         -7.6770     0.2920     1.6050 c6         1 RD7      -0.070400
      4 CAD         -7.5830     0.3650     0.0870 c6         1 RD7      -0.066900
      5 CAE         -6.2030     0.8340    -0.3580 c6         1 RD7      -0.065900
      6 CAF         -5.0800    -0.0780     0.1710 c6         1 RD7       0.314500
      7 CAH         -4.5510    -2.5380     0.2040 c5         1 RD7       0.189300
      8 CAI         -4.9140    -3.6760    -0.7340 c5         1 RD7      -0.087400
      9 CAJ         -4.8530    -2.9970    -2.1000 c5         1 RD7      -0.087400
     10 CAK         -5.3000    -1.5550    -1.8230 c5         1 RD7       0.189300
     11 CAL         -3.7390     0.5090    -0.2260 cc         1 RD7      -0.177700
     12 CAN         -3.4360     1.3950    -1.2160 cd         1 RD7       0.345200
     13 CAP         -1.3670     1.0790    -0.5310 cc         1 RD7       0.509900
     14 CAQ          0.0850     1.2310    -0.4450 ca         1 RD7      -0.175500
     15 CAR          0.7060     2.2190    -1.1980 ca         1 RD7      -0.026000
     16 CAS          2.0870     2.3830    -1.1060 ca         1 RD7      -0.109800
     17 CAT          3.0210     3.2840    -1.7060 cc         1 RD7      -0.178200
     18 CAU          4.2450     2.9640    -1.1990 cd         1 RD7      -0.114100
     19 CAW          2.8300     1.5420    -0.2460 ca         1 RD7      -0.036200
     20 CAX          2.2190     0.5390     0.5050 ca         1 RD7      -0.148000
     21 CAY          0.8530     0.3970     0.3960 ca         1 RD7      -0.098000
     22 CBA          5.7660     0.0780    -0.3800 c3         1 RD7       0.143800
     23 CBC          6.9890    -1.9690    -0.2310 c6         1 RD7       0.164300
     24 CBD          7.9290    -2.7970     0.6240 c6         1 RD7       0.156800
     25 CBF          8.8960    -0.8020     1.4920 c6         1 RD7       0.156800
     26 CBG          7.9570     0.0330     0.6410 c6         1 RD7       0.164300
     27 NAG         -5.2660    -1.4150    -0.3710 n3         1 RD7      -0.775600
     28 NAO         -2.1210     1.7080    -1.3800 nd         1 RD7      -0.656000
     29 NAV          4.1380     1.9220    -0.3150 na         1 RD7      -0.059400
     30 NBB          6.7160    -0.6870     0.3970 n3         1 RD7      -0.723600
     31 NBE          9.1630    -2.0640     0.8290 n7         1 RD7      -0.808200
     32 SAM         -2.2590     0.0500     0.5420 ss         1 RD7      -0.200300
     33 H1          -5.0060     0.9020     2.0740 hc         1 RD7       0.043200
     34 H2          -4.4140    -0.7410     2.1410 hc         1 RD7       0.043200
     35 H3          -6.7260    -1.6190     1.8890 hc         1 RD7       0.043700
     36 H4          -6.5940    -0.5530     3.2740 hc         1 RD7       0.043700
     37 H5          -8.6550    -0.0880     1.9100 hc         1 RD7       0.035700
     38 H6          -7.5930     1.3030     2.0180 hc         1 RD7       0.035700
     39 H7          -7.7970    -0.6160    -0.3450 hc         1 RD7       0.043700
     40 H8          -8.3370     1.0520    -0.3060 hc         1 RD7       0.043700
     41 H9          -6.1660     0.9040    -1.4470 hc         1 RD7       0.043200
     42 H10         -6.0270     1.8460     0.0180 hc         1 RD7       0.043200
     43 H11         -4.8710    -2.7280     1.2310 h1         1 RD7       0.035950
     44 H12         -3.4560    -2.4090     0.2220 h1         1 RD7       0.035950
     45 H13         -4.2350    -4.5240    -0.6460 hc         1 RD7       0.047950
     46 H14         -5.9250    -4.0300    -0.5190 hc         1 RD7       0.047950
     47 H15         -3.8250    -3.0070    -2.4700 hc         1 RD7       0.047950
     48 H16         -5.4710    -3.4870    -2.8520 hc         1 RD7       0.047950
     49 H17         -4.6350    -0.8470    -2.3330 h1         1 RD7       0.035950
     50 H18         -6.3100    -1.3660    -2.2010 h1         1 RD7       0.035950
     51 H19         -4.1660     1.8660    -1.8600 h4         1 RD7       0.039100
     52 H20          0.1170     2.8610    -1.8410 ha         1 RD7       0.156000
     53 H21          2.8100     4.0710    -2.4120 ha         1 RD7       0.159000
     54 H22          5.2080     3.4110    -1.3930 h4         1 RD7       0.161000
     55 H23          2.7880    -0.1160     1.1540 ha         1 RD7       0.138000
     56 H24          0.3720    -0.3860     0.9700 ha         1 RD7       0.130000
     57 H25          4.9100     0.9950     1.3760 h1         1 RD7       0.064700
     58 H26          6.0130     2.0500     0.5120 h1         1 RD7       0.064700
     59 H27          4.9190    -0.5750    -0.6110 h1         1 RD7       0.044200
     60 H28          6.1840     0.4070    -1.3470 h1         1 RD7       0.044200
     61 H30          6.0460    -2.5060    -0.3600 h1         1 RD7       0.038700
     62 H31          7.4200    -3.0480     1.5690 h1         1 RD7       0.037950
     63 H32          8.1450    -3.7370     0.1130 h1         1 RD7       0.037950
     64 H33          9.8320    -0.2590     1.6320 h1         1 RD7       0.037950
     65 H34          8.4410    -0.9330     2.4880 h1         1 RD7       0.037950
     66 H35          7.7470     0.9640     1.1710 h1         1 RD7       0.038700
     67 H36          8.4580     0.3030    -0.3040 h1         1 RD7       0.038700
     68 H39          9.8030    -2.6150     1.3870 hn         1 RD7       0.358800
     69 CAZ          5.2390     1.2940     0.3790 c3         1 RD7       0.044300
     70 H29          7.4310    -1.8430    -1.2350 h1         1 RD7       0.038700
@<TRIPOS>BOND
     1     1     2 1   
     2     1     6 1   
     3     1    33 1   
     4     1    34 1   
     5     2     3 1   
     6     2    35 1   
     7     2    36 1   
     8     3     4 1   
     9     3    37 1   
    10     3    38 1   
    11     4     5 1   
    12     4    39 1   
    13     4    40 1   
    14     5     6 1   
    15     5    41 1   
    16     5    42 1   
    17     6    11 1   
    18     6    27 1   
    19     7     8 1   
    20     7    27 1   
    21     7    43 1   
    22     7    44 1   
    23     8     9 1   
    24     8    45 1   
    25     8    46 1   
    26     9    10 1   
    27     9    47 1   
    28     9    48 1   
    29    10    27 1   
    30    10    49 1   
    31    10    50 1   
    32    11    12 2   
    33    11    32 1   
    34    12    28 1   
    35    12    51 1   
    36    13    14 1   
    37    13    28 2   
    38    13    32 1   
    39    14    15 ar  
    40    14    21 ar  
    41    15    16 ar  
    42    15    52 1   
    43    16    17 1   
    44    16    19 ar  
    45    17    18 2   
    46    17    53 1   
    47    18    29 1   
    48    18    54 1   
    49    19    20 ar  
    50    19    29 1   
    51    20    21 ar  
    52    20    55 1   
    53    21    56 1   
    54    22    30 1   
    55    22    59 1   
    56    22    60 1   
    57    22    69 1   
    58    23    24 1   
    59    23    30 1   
    60    23    61 1   
    61    23    70 1   
    62    24    31 1   
    63    24    62 1   
    64    24    63 1   
    65    25    26 1   
    66    25    31 1   
    67    25    64 1   
    68    25    65 1   
    69    26    30 1   
    70    26    66 1   
    71    26    67 1   
    72    29    69 1   
    73    31    68 1   
    74    57    69 1   
    75    58    69 1   
@<TRIPOS>SUBSTRUCTURE
     1 RD7         1 TEMP              0 ****  ****    0 ROOT
