@<TRIPOS>MOLECULE
RD8
   55    58     1     0     0
SMALL
bcc


@<TRIPOS>ATOM
      1 C02        246.0940   227.4300   208.2610 ca         1 RD8       0.169900
      2 C03        245.9750   226.6850   209.4250 cp         1 RD8      -0.096000
      3 C04        245.8000   227.3010   210.7550 cp         1 RD8      -0.029000
      4 C05        246.5790   226.8690   211.8310 ca         1 RD8      -0.115000
      5 C06        246.4210   227.4200   213.0910 ca         1 RD8      -0.114500
      6 C07        244.8540   228.2980   210.9850 ca         1 RD8      -0.115000
      7 C08        244.7010   228.8490   212.2500 ca         1 RD8      -0.114500
      8 C09        245.4860   228.4280   213.3170 ca         1 RD8      -0.083300
      9 C10        245.3300   229.0390   214.6830 c3         1 RD8       0.205100
     10 C13        243.9480   229.5940   217.2830 cc         1 RD8       0.224600
     11 C14        244.1030   230.9460   217.4660 cd         1 RD8      -0.236600
     12 C18        246.0500   225.3000   209.2690 ca         1 RD8      -0.072000
     13 C19        246.2230   224.6970   208.0360 ca         1 RD8      -0.164000
     14 C20        246.3470   225.4850   206.8900 ca         1 RD8       0.121600
     15 C22        246.2030   225.6470   204.3960 c5         1 RD8       0.071000
     16 C23        246.2180   224.5000   203.3900 c5         1 RD8       0.112100
     17 C24        244.8360   223.9360   203.0710 c3         1 RD8       0.090000
     18 C26        243.8790   222.9550   205.1230 c          1 RD8       0.665100
     19 C27        242.8270   223.1290   206.1890 c3         1 RD8      -0.178100
     20 C30        247.1100   223.7400   205.3400 c          1 RD8       0.853600
     21 C32        246.2760   226.8700   207.0130 ca         1 RD8      -0.233000
     22 F01        246.0590   228.7690   208.3350 f          1 RD8      -0.140900
     23 N11        245.0270   228.0250   215.6750 n7         1 RD8      -0.800200
     24 N15        242.8470   231.3990   217.5930 na         1 RD8      -0.009600
     25 N16        241.9660   230.4240   217.4970 nd         1 RD8      -0.196800
     26 N17        242.6210   229.3300   217.3100 nc         1 RD8      -0.360000
     27 N21        246.4920   224.9270   205.6210 n          1 RD8      -0.422000
     28 N25        243.9100   223.9120   204.1780 ns         1 RD8      -0.583900
     29 O28        244.6520   222.0070   205.1280 o          1 RD8      -0.583100
     30 O29        247.0520   223.5210   204.0260 os         1 RD8      -0.369900
     31 H1         247.3300   226.1040   211.6760 ha         1 RD8       0.134500
     32 H2         247.0400   227.0700   213.9080 ha         1 RD8       0.136000
     33 H3         244.2080   228.6340   210.1850 ha         1 RD8       0.134500
     34 H4         243.9540   229.6180   212.4050 ha         1 RD8       0.136000
     35 H5         246.2720   229.5160   214.9760 h1         1 RD8       0.035700
     36 H6         244.5850   229.8460   214.6330 h1         1 RD8       0.035700
     37 H7         244.7900   227.6890   217.7020 h1         1 RD8       0.064200
     38 H8         245.9610   228.9270   217.2960 h1         1 RD8       0.064200
     39 H9         244.9690   231.5830   217.5160 h4         1 RD8       0.187000
     40 H10        245.9420   224.6690   210.1420 ha         1 RD8       0.144000
     41 H11        246.2390   223.6200   207.9770 ha         1 RD8       0.168000
     42 H12        246.9730   226.3910   204.1780 h1         1 RD8       0.062200
     43 H13        245.2390   226.1520   204.4450 h1         1 RD8       0.062200
     44 H14        246.7020   224.7810   202.4550 h1         1 RD8       0.088700
     45 H15        244.3990   224.5720   202.3020 h1         1 RD8       0.068200
     46 H16        244.9420   222.9400   202.6370 h1         1 RD8       0.068200
     47 H17        242.1850   222.2490   206.2100 hc         1 RD8       0.062033
     48 H18        243.3140   223.1970   207.1620 hc         1 RD8       0.062033
     49 H19        242.2040   224.0100   206.0550 hc         1 RD8       0.062033
     50 H20        246.3770   227.5260   206.1580 ha         1 RD8       0.147000
     51 H21        244.1460   227.5810   215.4470 hn         1 RD8       0.372800
     52 H23        242.5370   232.3480   217.7430 hn         1 RD8       0.327700
     53 H24        243.2340   224.6560   204.2280 hn         1 RD8       0.312500
     54 O31        247.6670   222.9890   206.0980 o          1 RD8      -0.573500
     55 C12        244.9750   228.5340   217.0350 c3         1 RD8       0.144500
@<TRIPOS>BOND
     1     1     2 ar  
     2     1    21 ar  
     3     1    22 1   
     4     2     3 1   
     5     2    12 ar  
     6     3     4 ar  
     7     3     6 ar  
     8     4     5 ar  
     9     4    31 1   
    10     5     8 ar  
    11     5    32 1   
    12     6     7 ar  
    13     6    33 1   
    14     7     8 ar  
    15     7    34 1   
    16     8     9 1   
    17     9    23 1   
    18     9    35 1   
    19     9    36 1   
    20    10    11 2   
    21    10    26 1   
    22    10    55 1   
    23    11    24 1   
    24    11    39 1   
    25    12    13 ar  
    26    12    40 1   
    27    13    14 ar  
    28    13    41 1   
    29    14    21 ar  
    30    14    27 1   
    31    15    16 1   
    32    15    27 1   
    33    15    42 1   
    34    15    43 1   
    35    16    17 1   
    36    16    30 1   
    37    16    44 1   
    38    17    28 1   
    39    17    45 1   
    40    17    46 1   
    41    18    19 1   
    42    18    28 1   
    43    18    29 2   
    44    19    47 1   
    45    19    48 1   
    46    19    49 1   
    47    20    27 1   
    48    20    30 1   
    49    20    54 2   
    50    21    50 1   
    51    23    51 1   
    52    23    55 1   
    53    24    25 1   
    54    24    52 1   
    55    25    26 2   
    56    28    53 1   
    57    37    55 1   
    58    38    55 1   
@<TRIPOS>SUBSTRUCTURE
     1 RD8         1 TEMP              0 ****  ****    0 ROOT
