@<TRIPOS>MOLECULE
RD8
   55    58     1     0     0
SMALL
No Charge or Current Charge


@<TRIPOS>ATOM
      1 C02        246.1080   227.6050   208.3720 ca         1 RD8       0.205000
      2 C03        245.9670   226.7540   209.4980 cp         1 RD8      -0.096000
      3 C04        245.8620   227.2830   210.8950 cp         1 RD8      -0.029000
      4 C05        246.5910   226.6850   211.9520 ca         1 RD8      -0.097000
      5 C06        246.4920   227.1690   213.2680 ca         1 RD8      -0.096500
      6 C07        245.0210   228.3790   211.2090 ca         1 RD8      -0.097000
      7 C08        244.9210   228.8640   212.5240 ca         1 RD8      -0.096500
      8 C09        245.6570   228.2640   213.5620 ca         1 RD8      -0.083300
      9 C10        245.5530   228.7920   214.9860 c3         1 RD8       0.205100
     10 C13        243.7310   229.8790   217.2250 cc         1 RD8       0.159300
     11 C14        244.3560   231.0280   217.6010 cd         1 RD8      -0.204000
     12 C18        245.9560   225.3590   209.2610 ca         1 RD8      -0.054000
     13 C19        246.0530   224.8400   207.9590 ca         1 RD8      -0.146000
     14 C20        246.1160   225.6960   206.8400 ca         1 RD8       0.029000
     15 C22        245.9230   225.9080   204.3100 c5         1 RD8       0.071000
     16 C23        246.0460   224.7690   203.2570 c5         1 RD8       0.135300
     17 C24        244.7000   224.0480   202.9540 c3         1 RD8       0.090000
     18 C26        244.0830   222.3620   204.7370 c          1 RD8       0.598100
     19 C27        243.2470   222.1740   205.9940 c3         1 RD8      -0.178100
     20 C30        247.0330   224.0050   205.1880 c          1 RD8       0.711100
     21 C32        246.2030   227.0830   207.0730 ca         1 RD8      -0.215000
     22 F01        246.1980   228.9450   208.5290 f          1 RD8      -0.176000
     23 N11        244.5400   228.0350   215.7450 n7         1 RD8      -0.855400
     24 N15        243.3700   231.9870   217.4850 na         1 RD8      -0.009200
     25 N16        242.1990   231.4130   217.0530 nd         1 RD8      -0.196800
     26 N17        242.4280   230.1340   216.8970 nc         1 RD8      -0.360000
     27 N21        246.3640   225.1920   205.5140 n          1 RD8      -0.262400
     28 N25        243.9440   223.5920   204.1360 ns         1 RD8      -0.516900
     29 O28        244.8180   221.4910   204.2990 o          1 RD8      -0.583100
     30 O29        246.9820   223.8290   203.8370 os         1 RD8      -0.393100
     31 H1         247.2470   225.8430   211.7470 ha         1 RD8       0.116500
     32 H2         247.0640   226.6930   214.0610 ha         1 RD8       0.118000
     33 H3         244.4310   228.8500   210.4260 ha         1 RD8       0.116500
     34 H4         244.2660   229.7070   212.7360 ha         1 RD8       0.118000
     35 H5         246.5350   228.7110   215.4730 h1         1 RD8       0.035700
     36 H6         245.2940   229.8590   214.9510 h1         1 RD8       0.035700
     37 H7         243.6240   227.7950   217.6530 h1         1 RD8       0.064200
     38 H8         245.2560   228.4600   217.7120 h1         1 RD8       0.064200
     39 H9         245.3720   231.2270   217.9230 h4         1 RD8       0.169000
     40 H10        245.8660   224.6700   210.0980 ha         1 RD8       0.126000
     41 H11        246.0370   223.7610   207.8300 ha         1 RD8       0.150000
     42 H12        246.5980   226.7420   204.0780 h1         1 RD8       0.062200
     43 H13        244.9000   226.2950   204.4040 h1         1 RD8       0.062200
     44 H14        246.4540   225.1420   202.3080 h1         1 RD8       0.088700
     45 H15        244.0590   224.7400   202.3920 h1         1 RD8       0.068200
     46 H16        244.8980   223.1900   202.2970 h1         1 RD8       0.068200
     47 H17        243.3830   221.1860   206.4480 hc         1 RD8       0.062033
     48 H18        243.4800   222.9790   206.7000 hc         1 RD8       0.062033
     49 H19        242.1950   222.3690   205.7570 hc         1 RD8       0.062033
     50 H20        246.3460   227.7730   206.2470 ha         1 RD8       0.129000
     51 H21        243.6470   228.1240   215.2430 hn         1 RD8       0.428000
     52 H23        243.4380   232.9840   217.6770 hn         1 RD8       0.378000
     53 H24        243.2930   224.2360   204.5710 hn         1 RD8       0.312500
     54 O31        247.6090   223.2520   205.9600 o          1 RD8      -0.498000
     55 C12        244.3150   228.4820   217.1450 c3         1 RD8       0.144500
@<TRIPOS>BOND
     1     1     2 ar  
     2     1    21 ar  
     3     1    22 1   
     4     2     3 1   
     5     2    12 ar  
     6     3     4 ar  
     7     3     6 ar  
     8     4     5 ar  
     9     4    31 1   
    10     5     8 ar  
    11     5    32 1   
    12     6     7 ar  
    13     6    33 1   
    14     7     8 ar  
    15     7    34 1   
    16     8     9 1   
    17     9    23 1   
    18     9    35 1   
    19     9    36 1   
    20    10    11 2   
    21    10    26 1   
    22    10    55 1   
    23    11    24 1   
    24    11    39 1   
    25    12    13 ar  
    26    12    40 1   
    27    13    14 ar  
    28    13    41 1   
    29    14    21 ar  
    30    14    27 1   
    31    15    16 1   
    32    15    27 1   
    33    15    42 1   
    34    15    43 1   
    35    16    17 1   
    36    16    30 1   
    37    16    44 1   
    38    17    28 1   
    39    17    45 1   
    40    17    46 1   
    41    18    19 1   
    42    18    28 1   
    43    18    29 2   
    44    19    47 1   
    45    19    48 1   
    46    19    49 1   
    47    20    27 1   
    48    20    30 1   
    49    20    54 2   
    50    21    50 1   
    51    23    51 1   
    52    23    55 1   
    53    24    25 1   
    54    24    52 1   
    55    25    26 2   
    56    28    53 1   
    57    37    55 1   
    58    38    55 1   
@<TRIPOS>SUBSTRUCTURE
     1 RD8         1 TEMP              0 ****  ****    0 ROOT
