@<TRIPOS>MOLECULE
RDA
   46    47     1     0     0
SMALL
bcc


@<TRIPOS>ATOM
      1 C7           1.3490     3.6480    -0.2370 c3         1 RDA       0.127700
      2 O4           2.0440     2.4670     0.1710 os         1 RDA      -0.421900
      3 C6           3.1290     2.1260    -0.5090 c          1 RDA       0.670700
      4 O3           3.5930     2.7840    -1.4040 o          1 RDA      -0.511000
      5 C5           3.7090     0.8450    -0.0180 ca         1 RDA      -0.197600
      6 C4           5.0090     0.8680     0.4920 ca         1 RDA       0.230100
      7 O2           5.6360     2.0520     0.5430 oh         1 RDA      -0.472100
      8 C3           5.6030    -0.2960     0.9580 ca         1 RDA      -0.335000
      9 C2           4.9100    -1.4960     0.9030 ca         1 RDA       0.213100
     10 O1           5.4290    -2.6480     1.3350 oh         1 RDA      -0.467100
     11 C1           3.6160    -1.5160     0.3780 ca         1 RDA      -0.065600
     12 CL           2.8040    -3.0460     0.3150 cl         1 RDA      -0.086400
     13 C8           2.9990    -0.3590    -0.0840 ca         1 RDA       0.046700
     14 C9           1.6070    -0.4150    -0.6540 c3         1 RDA      -0.025100
     15 C10          0.5490    -0.4090     0.4430 c3         1 RDA      -0.158400
     16 C11         -0.8600    -0.3260    -0.0970 c          1 RDA       0.667100
     17 O5          -1.1210    -0.1660    -1.2740 o          1 RDA      -0.568100
     18 N1          -1.8240    -0.4420     0.8560 ns         1 RDA      -0.511100
     19 C12         -3.1960    -0.2320     0.5770 ca         1 RDA      -0.057400
     20 C18         -3.7190     1.0560     0.4680 ca         1 RDA      -0.097000
     21 C17         -5.0570     1.2610     0.2050 ca         1 RDA       0.087100
     22 O8          -5.5320     2.5250     0.1070 oh         1 RDA      -0.496100
     23 C15         -5.8990     0.1450     0.0520 ca         1 RDA       0.095100
     24 O7          -7.1890     0.4410    -0.1950 os         1 RDA      -0.339900
     25 C16         -8.1290    -0.6140    -0.2720 c3         1 RDA       0.132700
     26 C14         -5.3870    -1.1370     0.1610 ca         1 RDA      -0.212000
     27 C13         -4.0300    -1.3310     0.4190 ca         1 RDA       0.156100
     28 O6          -3.5780    -2.5980     0.5070 oh         1 RDA      -0.489100
     29 H71          1.9800     4.5310    -0.1460 h1         1 RDA       0.050033
     30 H72          0.9910     3.5630    -1.2630 h1         1 RDA       0.050033
     31 H73          0.5010     3.7390     0.4350 h1         1 RDA       0.050033
     32 HO2          6.5100     1.9600     0.9380 ho         1 RDA       0.434000
     33 H3           6.6070    -0.2710     1.3680 ha         1 RDA       0.140000
     34 HO1          6.3190    -2.5100     1.6810 ho         1 RDA       0.434000
     35 H91          1.4410     0.4170    -1.3370 hc         1 RDA       0.076700
     36 H92          1.5020    -1.3150    -1.2620 hc         1 RDA       0.076700
     37 H101         0.6380    -1.3000     1.0700 hc         1 RDA       0.069700
     38 H102         0.7020     0.4390     1.1150 hc         1 RDA       0.069700
     39 HN1         -1.5350    -0.4930     1.8220 hn         1 RDA       0.318500
     40 H18         -3.0630     1.9080     0.5970 ha         1 RDA       0.153000
     41 HO8         -6.4860     2.5090    -0.0320 ho         1 RDA       0.440000
     42 H161        -7.9150    -1.2870    -1.1050 h1         1 RDA       0.044367
     43 H162        -8.1610    -1.1920     0.6550 h1         1 RDA       0.044367
     44 H163        -9.0990    -0.1520    -0.4340 h1         1 RDA       0.044367
     45 H14         -6.0230    -2.0060     0.0470 ha         1 RDA       0.153000
     46 HO6         -2.6310    -2.5830     0.7000 ho         1 RDA       0.434000
@<TRIPOS>BOND
     1     1     2 1   
     2     1    29 1   
     3     1    30 1   
     4     1    31 1   
     5     2     3 1   
     6     3     4 2   
     7     3     5 1   
     8     5     6 ar  
     9     5    13 ar  
    10     6     7 1   
    11     6     8 ar  
    12     7    32 1   
    13     8     9 ar  
    14     8    33 1   
    15     9    10 1   
    16     9    11 ar  
    17    10    34 1   
    18    11    12 1   
    19    11    13 ar  
    20    13    14 1   
    21    14    15 1   
    22    14    35 1   
    23    14    36 1   
    24    15    16 1   
    25    15    37 1   
    26    15    38 1   
    27    16    17 2   
    28    16    18 1   
    29    18    19 1   
    30    18    39 1   
    31    19    20 ar  
    32    19    27 ar  
    33    20    21 ar  
    34    20    40 1   
    35    21    22 1   
    36    21    23 ar  
    37    22    41 1   
    38    23    24 1   
    39    23    26 ar  
    40    24    25 1   
    41    25    42 1   
    42    25    43 1   
    43    25    44 1   
    44    26    27 ar  
    45    26    45 1   
    46    27    28 1   
    47    28    46 1   
@<TRIPOS>SUBSTRUCTURE
     1 RDA         1 TEMP              0 ****  ****    0 ROOT
