@<TRIPOS>MOLECULE
RDA
   46    47     1     0     0
SMALL
No Charge or Current Charge


@<TRIPOS>ATOM
      1 C7           2.5130     4.2280    -0.3730 c3         1 RDA       0.150900
      2 O4           2.8720     2.9260     0.1230 os         1 RDA      -0.445100
      3 C6           3.6300     2.1150    -0.6810 c          1 RDA       0.621700
      4 O3           3.9800     2.4080    -1.8170 o          1 RDA      -0.462000
      5 C5           3.8670     0.7670    -0.0820 ca         1 RDA      -0.197600
      6 C4           5.1630     0.4490     0.3580 ca         1 RDA       0.230100
      7 O2           6.1710     1.3560     0.2500 oh         1 RDA      -0.511100
      8 C3           5.4370    -0.7980     0.9280 ca         1 RDA      -0.317000
      9 C2           4.4140    -1.7420     1.0610 ca         1 RDA       0.213100
     10 O1           4.7070    -2.9520     1.6210 oh         1 RDA      -0.506100
     11 C1           3.1060    -1.4460     0.6230 ca         1 RDA       0.026000
     12 Cl           1.8370    -2.6740     0.8050 cl         1 RDA      -0.178000
     13 C8           2.8190    -0.1830     0.0440 ca         1 RDA       0.046700
     14 C9           1.3990     0.1350    -0.4500 c3         1 RDA      -0.025100
     15 C10          0.4580     0.5940     0.6930 c3         1 RDA      -0.158400
     16 C11         -0.9600     0.8600     0.1790 c          1 RDA       0.600100
     17 O5          -1.2220     1.8450    -0.5020 o          1 RDA      -0.568100
     18 N1          -1.8990    -0.0950     0.5560 ns         1 RDA      -0.185000
     19 C12         -3.3140    -0.1510     0.3630 ca         1 RDA      -0.150000
     20 C18         -4.0750     1.0300     0.2080 ca         1 RDA      -0.079000
     21 C17         -5.4700     0.9660     0.0600 ca         1 RDA       0.087100
     22 O8          -6.1920     2.1170    -0.0850 oh         1 RDA      -0.535100
     23 C15         -6.1320    -0.2780     0.0700 ca         1 RDA       0.095100
     24 O7          -7.5090    -0.2880    -0.0760 os         1 RDA      -0.363100
     25 C16         -8.2740    -1.5080    -0.0760 c3         1 RDA       0.155900
     26 C14         -5.3790    -1.4600     0.2300 ca         1 RDA      -0.194000
     27 C13         -3.9850    -1.3960     0.3720 ca         1 RDA       0.156100
     28 O6          -3.2950    -2.5660     0.4970 oh         1 RDA      -0.528100
     29 H71          3.4080     4.8260    -0.5890 h1         1 RDA       0.050033
     30 H72          1.9180     4.1460    -1.2920 h1         1 RDA       0.050033
     31 H73          1.9140     4.7680     0.3710 h1         1 RDA       0.050033
     32 HO2          6.9870     0.9480     0.6090 ho         1 RDA       0.473000
     33 H3           6.4420    -1.0320     1.2680 ha         1 RDA       0.122000
     34 HO1          5.6580    -2.9570     1.8540 ho         1 RDA       0.473000
     35 H91          1.4140     0.9030    -1.2320 hc         1 RDA       0.076700
     36 H92          0.9660    -0.7430    -0.9450 hc         1 RDA       0.076700
     37 H101         0.4350    -0.1810     1.4680 hc         1 RDA       0.069700
     38 H102         0.8520     1.5220     1.1210 hc         1 RDA       0.069700
     39 HN1         -1.5200    -0.8470     1.1170 hn         1 RDA       0.152000
     40 H18         -3.6010     2.0070     0.2220 ha         1 RDA       0.135000
     41 HO8         -7.1360     1.8510    -0.1680 ho         1 RDA       0.479000
     42 H161        -7.9610    -2.1640    -0.8990 h1         1 RDA       0.044367
     43 H162        -8.1490    -2.0470     0.8710 h1         1 RDA       0.044367
     44 H163        -9.3410    -1.2880    -0.2040 h1         1 RDA       0.044367
     45 H14         -5.8570    -2.4350     0.2390 ha         1 RDA       0.135000
     46 HO6         -2.3540    -2.3970     0.2860 ho         1 RDA       0.473000
@<TRIPOS>BOND
     1     1     2 1   
     2     1    29 1   
     3     1    30 1   
     4     1    31 1   
     5     2     3 1   
     6     3     4 2   
     7     3     5 1   
     8     5     6 ar  
     9     5    13 ar  
    10     6     7 1   
    11     6     8 ar  
    12     7    32 1   
    13     8     9 ar  
    14     8    33 1   
    15     9    10 1   
    16     9    11 ar  
    17    10    34 1   
    18    11    12 1   
    19    11    13 ar  
    20    13    14 1   
    21    14    15 1   
    22    14    35 1   
    23    14    36 1   
    24    15    16 1   
    25    15    37 1   
    26    15    38 1   
    27    16    17 2   
    28    16    18 1   
    29    18    19 1   
    30    18    39 1   
    31    19    20 ar  
    32    19    27 ar  
    33    20    21 ar  
    34    20    40 1   
    35    21    22 1   
    36    21    23 ar  
    37    22    41 1   
    38    23    24 1   
    39    23    26 ar  
    40    24    25 1   
    41    25    42 1   
    42    25    43 1   
    43    25    44 1   
    44    26    27 ar  
    45    26    45 1   
    46    27    28 1   
    47    28    46 1   
@<TRIPOS>SUBSTRUCTURE
     1 RDA         1 TEMP              0 ****  ****    0 ROOT
