@<TRIPOS>MOLECULE
RDC
   42    44     1     0     0
SMALL
No Charge or Current Charge


@<TRIPOS>ATOM
      1 C1          -1.0880    -0.2990    -0.3260 c          1 RDC       0.621700
      2 C2          -1.0160    -0.0910     1.1560 ca         1 RDC      -0.273600
      3 C3          -2.1690    -0.3170     1.9320 ca         1 RDC       0.246100
      4 C4          -2.1210    -0.2410     3.3240 ca         1 RDC      -0.269000
      5 C5          -0.9230     0.0780     3.9680 ca         1 RDC       0.217100
      6 C6           0.2390     0.3490     3.2150 ca         1 RDC       0.041000
      7 C7           0.2040     0.2750     1.7960 ca         1 RDC       0.071700
      8 C8           1.4370     0.6830     0.9710 c3         1 RDC      -0.143100
      9 C9           2.3930    -0.4870     0.6540 c          1 RDC       0.591300
     10 C10          2.8570    -0.7380    -0.7540 ce         1 RDC      -0.277200
     11 C11          2.4840    -0.0850    -1.8950 cf         1 RDC      -0.123000
     12 C12          2.9320    -0.4230    -3.2400 cf         1 RDC      -0.175000
     13 C13          2.2550    -0.0570    -4.3560 c2         1 RDC      -0.193200
     14 C14          0.9630     0.6800    -4.4370 cx         1 RDC       0.116500
     15 C15         -0.2400     0.0660    -3.7750 cx         1 RDC       0.100300
     16 C16         -1.3000     0.9710    -3.1410 c3         1 RDC      -0.091400
     17 C17         -2.4370     0.2720    -2.3310 c3         1 RDC       0.201300
     18 C18         -2.8250    -1.1640    -2.7570 c3         1 RDC      -0.122100
     19 O1          -2.1750     0.3200    -0.9020 os         1 RDC      -0.487100
     20 O2          -0.2870    -0.9950    -0.9200 o          1 RDC      -0.481000
     21 O3          -3.3590    -0.6150     1.3460 oh         1 RDC      -0.531100
     22 O4          -0.9040     0.1440     5.3330 oh         1 RDC      -0.503100
     23 Cl1          1.7270     0.7890     4.0780 cl         1 RDC      -0.166000
     24 O5           2.8190    -1.1940     1.5570 o          1 RDC      -0.509100
     25 O6          -0.1010     0.0890    -5.2150 op         1 RDC      -0.442000
     26 H4          -3.0240    -0.4320     3.8970 ha         1 RDC       0.137000
     27 H81          2.0270     1.4350     1.5030 hc         1 RDC       0.076200
     28 H82          1.1200     1.2010     0.0670 hc         1 RDC       0.076200
     29 H10          3.5560    -1.5680    -0.8430 ha         1 RDC       0.196000
     30 H11          1.7660     0.7310    -1.8390 ha         1 RDC       0.175000
     31 H12          3.8460    -1.0150    -3.3340 ha         1 RDC       0.186000
     32 H13          2.6580    -0.3550    -5.3260 ha         1 RDC       0.193000
     33 H14          1.0330     1.7660    -4.5150 h1         1 RDC       0.089700
     34 H15         -0.1040    -0.9130    -3.3190 h1         1 RDC       0.112700
     35 H161        -1.7720     1.5590    -3.9380 hc         1 RDC       0.064700
     36 H162        -0.8100     1.7050    -2.4900 hc         1 RDC       0.064700
     37 H17         -3.3340     0.8830    -2.5090 h1         1 RDC       0.070700
     38 H181        -2.0140    -1.8840    -2.6070 hc         1 RDC       0.056367
     39 H182        -3.6930    -1.5080    -2.1800 hc         1 RDC       0.056367
     40 H183        -3.1010    -1.1810    -3.8180 hc         1 RDC       0.056367
     41 HO3         -3.2900    -0.3260     0.4070 ho         1 RDC       0.494000
     42 HO4         -1.8010    -0.0710     5.6640 ho         1 RDC       0.476000
@<TRIPOS>BOND
     1     1     2 1   
     2     1    19 1   
     3     1    20 2   
     4     2     3 ar  
     5     2     7 ar  
     6     3     4 ar  
     7     3    21 1   
     8     4     5 ar  
     9     4    26 1   
    10     5     6 ar  
    11     5    22 1   
    12     6     7 ar  
    13     6    23 1   
    14     7     8 1   
    15     8     9 1   
    16     8    27 1   
    17     8    28 1   
    18     9    10 1   
    19     9    24 2   
    20    10    11 2   
    21    10    29 1   
    22    11    12 1   
    23    11    30 1   
    24    12    13 2   
    25    12    31 1   
    26    13    14 1   
    27    13    32 1   
    28    14    15 1   
    29    14    25 1   
    30    14    33 1   
    31    15    16 1   
    32    15    25 1   
    33    15    34 1   
    34    16    17 1   
    35    16    35 1   
    36    16    36 1   
    37    17    18 1   
    38    17    19 1   
    39    17    37 1   
    40    18    38 1   
    41    18    39 1   
    42    18    40 1   
    43    21    41 1   
    44    22    42 1   
@<TRIPOS>SUBSTRUCTURE
     1 RDC         1 TEMP              0 ****  ****    0 ROOT
