@<TRIPOS>MOLECULE
RDC
   42    44     1     0     0
SMALL
bcc


@<TRIPOS>ATOM
      1 C1          -1.1080    -0.2380    -0.3320 c          1 RDC       0.670700
      2 C2          -1.0580     0.0080     1.1270 ca         1 RDC      -0.273600
      3 C3          -2.2120    -0.1020     1.9200 ca         1 RDC       0.246100
      4 C4          -2.1080    -0.0610     3.3060 ca         1 RDC      -0.287000
      5 C5          -0.8790     0.1240     3.9120 ca         1 RDC       0.217100
      6 C6           0.2640     0.2950     3.1170 ca         1 RDC      -0.050600
      7 C7           0.1900     0.2480     1.7380 ca         1 RDC       0.071700
      8 C8           1.4040     0.5450     0.9010 c3         1 RDC      -0.143100
      9 C9           2.2240    -0.6790     0.5510 c          1 RDC       0.591300
     10 C10          2.9170    -0.7400    -0.7460 ce         1 RDC      -0.227200
     11 C11          2.5050    -0.0760    -1.8340 cf         1 RDC      -0.073000
     12 C12          3.0060    -0.2940    -3.1750 cf         1 RDC      -0.125000
     13 C13          2.3140     0.0710    -4.2600 c2         1 RDC      -0.143200
     14 C14          0.9910     0.7520    -4.2260 cx         1 RDC       0.093300
     15 C15         -0.2240     0.0770    -3.7570 cx         1 RDC       0.077100
     16 C16         -1.3940     0.8590    -3.1880 c3         1 RDC      -0.091400
     17 C17         -2.4390     0.1270    -2.3370 c3         1 RDC       0.178100
     18 C18         -2.7480    -1.3000    -2.7430 c3         1 RDC      -0.122100
     19 O1          -2.2030     0.2510    -0.9040 os         1 RDC      -0.463900
     20 O2          -0.2500    -0.8300    -0.9360 o          1 RDC      -0.530000
     21 O3          -3.4420    -0.2890     1.4310 oh         1 RDC      -0.492100
     22 O4          -0.7260     0.1690     5.2350 oh         1 RDC      -0.464100
     23 CL1          1.7600     0.5870     3.9370 cl         1 RDC      -0.074400
     24 O5           2.3420    -1.5860     1.3500 o          1 RDC      -0.509100
     25 O6           0.0310     0.2650    -5.1460 op         1 RDC      -0.395600
     26 H4          -3.0030    -0.1710     3.9080 ha         1 RDC       0.155000
     27 H81          2.0810     1.2010     1.4560 hc         1 RDC       0.076200
     28 H82          1.1230     1.1220     0.0240 hc         1 RDC       0.076200
     29 H10          3.7070    -1.4820    -0.8220 ha         1 RDC       0.146000
     30 H11          1.6920     0.6300    -1.7470 ha         1 RDC       0.125000
     31 H12          3.9450    -0.8230    -3.2920 ha         1 RDC       0.136000
     32 H13          2.7210    -0.1350    -5.2450 ha         1 RDC       0.143000
     33 H14          1.0270     1.8400    -4.1480 h1         1 RDC       0.089700
     34 H15         -0.1070    -0.9530    -3.4350 h1         1 RDC       0.112700
     35 H161        -1.9460     1.2630    -4.0400 hc         1 RDC       0.064700
     36 H162        -1.0470     1.7360    -2.6350 hc         1 RDC       0.064700
     37 H17         -3.3570     0.7050    -2.4330 h1         1 RDC       0.070700
     38 H181        -1.9020    -1.9760    -2.6450 hc         1 RDC       0.056367
     39 H182        -3.5740    -1.6940    -2.1520 hc         1 RDC       0.056367
     40 H183        -3.0620    -1.3050    -3.7880 hc         1 RDC       0.056367
     41 HO3         -3.4550    -0.1370     0.4750 ho         1 RDC       0.455000
     42 HO4         -1.5720     0.0320     5.6790 ho         1 RDC       0.437000
@<TRIPOS>BOND
     1     1     2 1   
     2     1    19 1   
     3     1    20 2   
     4     2     3 ar  
     5     2     7 ar  
     6     3     4 ar  
     7     3    21 1   
     8     4     5 ar  
     9     4    26 1   
    10     5     6 ar  
    11     5    22 1   
    12     6     7 ar  
    13     6    23 1   
    14     7     8 1   
    15     8     9 1   
    16     8    27 1   
    17     8    28 1   
    18     9    10 1   
    19     9    24 2   
    20    10    11 2   
    21    10    29 1   
    22    11    12 1   
    23    11    30 1   
    24    12    13 2   
    25    12    31 1   
    26    13    14 1   
    27    13    32 1   
    28    14    15 1   
    29    14    25 1   
    30    14    33 1   
    31    15    16 1   
    32    15    25 1   
    33    15    34 1   
    34    16    17 1   
    35    16    35 1   
    36    16    36 1   
    37    17    18 1   
    38    17    19 1   
    39    17    37 1   
    40    18    38 1   
    41    18    39 1   
    42    18    40 1   
    43    21    41 1   
    44    22    42 1   
@<TRIPOS>SUBSTRUCTURE
     1 RDC         1 TEMP              0 ****  ****    0 ROOT
