@<TRIPOS>MOLECULE
RDD
   29    30     1     0     0
SMALL
abcg2


@<TRIPOS>ATOM
      1 C2          -1.9900    -0.6250     1.0150 c          1 RDD       0.641000
      2 C6          -1.0570     0.6560    -0.8350 c          1 RDD       0.641000
      3 C4          -3.4310     0.8680    -0.2850 c          1 RDD       0.638000
      4 O6          -0.1340     0.9830    -1.5380 o          1 RDD      -0.529500
      5 N5          -2.3150     1.1680    -1.0190 ns         1 RDD      -0.477000
      6 O4          -4.5150     1.3540    -0.4930 o          1 RDD      -0.524000
      7 N3          -3.1920    -0.0420     0.7110 ns         1 RDD      -0.477000
      8 O2          -1.8810    -1.4050     1.9290 o          1 RDD      -0.529500
      9 N1          -0.9300    -0.2560     0.1970 n          1 RDD      -0.383400
     10 C1           0.4000    -0.7680     0.5170 c5         1 RDD       0.327700
     11 O1           1.1930     0.2990     0.9560 os         1 RDD      -0.434000
     12 C8           2.5010     0.2070     0.4190 c5         1 RDD       0.172300
     13 C5           3.0680     1.5870     0.1970 c3         1 RDD       0.163600
     14 O5           3.2580     2.2220     1.4390 oh         1 RDD      -0.705000
     15 C3           2.3650    -0.5830    -0.8830 c5         1 RDD       0.093300
     16 O3           3.5380    -1.3200    -1.1170 oh         1 RDD      -0.714000
     17 C7           1.1430    -1.4880    -0.6240 c5         1 RDD       0.114300
     18 O7           1.5500    -2.7440    -0.1480 oh         1 RDD      -0.712000
     19 HN5         -2.4250     1.8320    -1.7750 hn         1 RDD       0.364500
     20 HN3         -3.9760    -0.3010     1.2970 hn         1 RDD       0.364500
     21 H1           0.2440    -1.4880     1.3200 h2         1 RDD       0.120700
     22 H4           3.1510    -0.3520     1.1080 h1         1 RDD       0.082700
     23 H5           4.0140     1.4710    -0.3490 h1         1 RDD       0.032200
     24 H5'A         2.3840     2.1490    -0.4520 h1         1 RDD       0.032200
     25 HO5          3.6290     3.0930     1.2730 ho         1 RDD       0.505000
     26 H3           2.1560     0.0920    -1.7140 h1         1 RDD       0.076700
     27 HO3          3.6670    -1.4110    -2.0670 ho         1 RDD       0.518000
     28 H2           0.5190    -1.5970    -1.5160 h1         1 RDD       0.071700
     29 HO2          2.4550    -2.8810    -0.4620 ho         1 RDD       0.529000
@<TRIPOS>BOND
     1     1     7 1   
     2     1     8 2   
     3     1     9 1   
     4     2     4 2   
     5     2     5 1   
     6     2     9 1   
     7     3     5 1   
     8     3     6 2   
     9     3     7 1   
    10     5    19 1   
    11     7    20 1   
    12     9    10 1   
    13    10    11 1   
    14    10    17 1   
    15    10    21 1   
    16    11    12 1   
    17    12    13 1   
    18    12    15 1   
    19    12    22 1   
    20    13    14 1   
    21    13    23 1   
    22    13    24 1   
    23    14    25 1   
    24    15    16 1   
    25    15    17 1   
    26    15    26 1   
    27    16    27 1   
    28    17    18 1   
    29    17    28 1   
    30    18    29 1   
@<TRIPOS>SUBSTRUCTURE
     1 RDD         1 TEMP              0 ****  ****    0 ROOT
