@<TRIPOS>MOLECULE
RDD
   29    30     1     0     0
SMALL
No Charge or Current Charge


@<TRIPOS>ATOM
      1 C2          -2.0750    -0.7700     0.8650 c          1 RDD       0.641000
      2 C6          -1.2070     0.8860    -0.7120 c          1 RDD       0.641000
      3 C4          -3.6000     0.5970    -0.4310 c          1 RDD       0.638000
      4 O6          -0.3200     1.4610    -1.3160 o          1 RDD      -0.529500
      5 N5          -2.5060     1.1690    -0.9760 ns         1 RDD      -0.477000
      6 O4          -4.7360     0.9110    -0.7270 o          1 RDD      -0.524000
      7 N3          -3.3060    -0.3610     0.4710 ns         1 RDD      -0.477000
      8 O2          -1.9460    -1.6490     1.6990 o          1 RDD      -0.529500
      9 N1          -1.0080    -0.1150     0.2490 n          1 RDD      -0.383400
     10 C1           0.3670    -0.4830     0.6930 c5         1 RDD       0.327700
     11 O1           1.2400     0.6580     0.8300 os         1 RDD      -0.434000
     12 C8           2.5440     0.2410     0.3740 c5         1 RDD       0.172300
     13 C5           3.4630     1.4730     0.1400 c3         1 RDD       0.163600
     14 O5           3.8640     2.0780     1.3860 oh         1 RDD      -0.705000
     15 C3           2.1980    -0.5780    -0.9100 c5         1 RDD       0.093300
     16 O3           3.2690    -1.4290    -1.3750 oh         1 RDD      -0.714000
     17 C7           1.0020    -1.4380    -0.3910 c5         1 RDD       0.114300
     18 O7           1.5450    -2.6420     0.1650 oh         1 RDD      -0.712000
     19 HN5         -2.6730     1.8850    -1.6640 hn         1 RDD       0.364500
     20 HN3         -4.0890    -0.8220     0.9060 hn         1 RDD       0.364500
     21 H1           0.2970    -1.0050     1.6570 h2         1 RDD       0.120700
     22 H4           3.0030    -0.4040     1.1370 h1         1 RDD       0.082700
     23 H5           4.3510     1.1450    -0.4160 h1         1 RDD       0.032200
     24 H5'A         2.9290     2.1990    -0.4880 h1         1 RDD       0.032200
     25 HO5          4.3840     2.8850     1.1600 ho         1 RDD       0.505000
     26 H3           1.8600     0.0960    -1.7110 h1         1 RDD       0.076700
     27 HO3          3.8080    -0.9110    -2.0220 ho         1 RDD       0.518000
     28 H2           0.2990    -1.6690    -1.2040 h1         1 RDD       0.071700
     29 HO2          2.4300    -2.6910    -0.2890 ho         1 RDD       0.529000
@<TRIPOS>BOND
     1     1     7 1   
     2     1     8 2   
     3     1     9 1   
     4     2     4 2   
     5     2     5 1   
     6     2     9 1   
     7     3     5 1   
     8     3     6 2   
     9     3     7 1   
    10     5    19 1   
    11     7    20 1   
    12     9    10 1   
    13    10    11 1   
    14    10    17 1   
    15    10    21 1   
    16    11    12 1   
    17    12    13 1   
    18    12    15 1   
    19    12    22 1   
    20    13    14 1   
    21    13    23 1   
    22    13    24 1   
    23    14    25 1   
    24    15    16 1   
    25    15    17 1   
    26    15    26 1   
    27    16    27 1   
    28    17    18 1   
    29    17    28 1   
    30    18    29 1   
@<TRIPOS>SUBSTRUCTURE
     1 RDD         1 TEMP              0 ****  ****    0 ROOT
