@<TRIPOS>MOLECULE
RDE
   47    48     1     0     0
SMALL
No Charge or Current Charge


@<TRIPOS>ATOM
      1 CAC          3.3630    -1.9950    -2.7630 c3         1 RDE       0.146900
      2 OAP          2.7850    -1.0200    -1.8760 os         1 RDE      -0.342100
      3 CBA          3.4840    -0.2850    -0.9190 ca         1 RDE       0.032100
      4 CAW          4.8930    -0.3880    -0.6900 ca         1 RDE       0.160100
      5 OAN          5.6720    -1.2440    -1.4520 os         1 RDE      -0.325100
      6 CAA          7.0920    -1.3930    -1.2720 c3         1 RDE       0.144900
      7 CAJ          5.4890     0.3870     0.3290 ca         1 RDE      -0.252000
      8 CAS          4.7230     1.2510     1.1100 ca         1 RDE       0.306000
      9 NAD          5.3510     1.9460     2.1140 nv         1 RDE      -1.062000
     10 CAZ          3.3330     1.3750     0.8790 ca         1 RDE       0.006100
     11 OAO          2.5640     2.2200     1.6610 os         1 RDE      -0.360100
     12 CAB          2.6160     3.6390     1.4320 c3         1 RDE       0.139900
     13 CAY          2.7110     0.6080    -0.1320 ca         1 RDE      -0.039300
     14 CAM          1.1970     0.7270    -0.3610 c3         1 RDE      -0.027100
     15 CAL          0.4140    -0.3260     0.4410 c3         1 RDE       0.173600
     16 OAQ         -0.9860    -0.1350     0.1660 os         1 RDE      -0.434100
     17 CAR         -1.8800    -0.9690     0.7780 c          1 RDE       0.636700
     18 OAE         -1.5540    -1.8660     1.5460 o          1 RDE      -0.542000
     19 CAX         -3.3180    -0.6900     0.4270 ca         1 RDE      -0.298600
     20 CAK         -3.6440     0.3600    -0.4660 ca         1 RDE       0.033000
     21 CAV         -4.9830     0.6260    -0.7990 ca         1 RDE       0.012000
     22 ClAH        -5.3440     1.9450    -1.9170 cl         1 RDE      -0.178000
     23 CAT         -6.0140    -0.1560    -0.2410 ca         1 RDE       0.224100
     24 OAF         -7.3210     0.0850    -0.5510 oh         1 RDE      -0.505100
     25 CAI         -5.6980    -1.1950     0.6420 ca         1 RDE      -0.285000
     26 CAU         -4.3650    -1.4610     0.9740 ca         1 RDE       0.266100
     27 OAG         -4.1110    -2.4800     1.8360 oh         1 RDE      -0.538100
     28 HAC1         2.5850    -2.4290    -3.4030 h1         1 RDE       0.034700
     29 HAC2         4.1150    -1.5350    -3.4160 h1         1 RDE       0.034700
     30 HAC3         3.8250    -2.8150    -2.1970 h1         1 RDE       0.034700
     31 HAA1         7.3230    -1.7520    -0.2620 h1         1 RDE       0.042033
     32 HAA2         7.4900    -2.1210    -1.9900 h1         1 RDE       0.042033
     33 HAA3         7.6080    -0.4380    -1.4370 h1         1 RDE       0.042033
     34 HAJ1         6.5520     0.3220     0.5320 ha         1 RDE       0.121000
     35 HAD          4.7690     2.4090     2.8080 hn         1 RDE       0.453000
     36 HAC          6.2900     1.6790     2.3990 hn         1 RDE       0.453000
     37 HAB1         3.6310     4.0280     1.5800 h1         1 RDE       0.037700
     38 HAB2         2.3030     3.8750     0.4070 h1         1 RDE       0.037700
     39 HAB3         1.9450     4.1620     2.1240 h1         1 RDE       0.037700
     40 HAM1         0.8330     1.7230    -0.0860 hc         1 RDE       0.064200
     41 HAM2         0.9540     0.6200    -1.4240 hc         1 RDE       0.064200
     42 HAL1         0.7390    -1.3310     0.1410 h1         1 RDE       0.065700
     43 HAL2         0.6230    -0.1980     1.5120 h1         1 RDE       0.065700
     44 HAK1        -2.8700     0.9800    -0.9120 ha         1 RDE       0.144000
     45 HAA         -7.8740    -0.5610    -0.0640 ho         1 RDE       0.476000
     46 HAI1        -6.4840    -1.8060     1.0790 ha         1 RDE       0.137000
     47 HAB         -3.1280    -2.5110     1.9440 ho         1 RDE       0.522000
@<TRIPOS>BOND
     1     1     2 1   
     2     1    28 1   
     3     1    29 1   
     4     1    30 1   
     5     2     3 1   
     6     3     4 ar  
     7     3    13 ar  
     8     4     5 1   
     9     4     7 ar  
    10     5     6 1   
    11     6    31 1   
    12     6    32 1   
    13     6    33 1   
    14     7     8 ar  
    15     7    34 1   
    16     8     9 1   
    17     8    10 ar  
    18     9    35 1   
    19     9    36 1   
    20    10    11 1   
    21    10    13 ar  
    22    11    12 1   
    23    12    37 1   
    24    12    38 1   
    25    12    39 1   
    26    13    14 1   
    27    14    15 1   
    28    14    40 1   
    29    14    41 1   
    30    15    16 1   
    31    15    42 1   
    32    15    43 1   
    33    16    17 1   
    34    17    18 2   
    35    17    19 1   
    36    19    20 ar  
    37    19    26 ar  
    38    20    21 ar  
    39    20    44 1   
    40    21    22 1   
    41    21    23 ar  
    42    23    24 1   
    43    23    25 ar  
    44    24    45 1   
    45    25    26 ar  
    46    25    46 1   
    47    26    27 1   
    48    27    47 1   
@<TRIPOS>SUBSTRUCTURE
     1 RDE         1 TEMP              0 ****  ****    0 ROOT
