@<TRIPOS>MOLECULE
RDE
   47    48     1     0     0
SMALL
abcg2


@<TRIPOS>ATOM
      1 CAC          2.9640    -0.9520    -2.9500 c3         1 RDE       0.146900
      2 OAP          2.8240    -1.3180    -1.5850 os         1 RDE      -0.342100
      3 CBA          3.4530    -0.4790    -0.7090 ca         1 RDE       0.032100
      4 CAW          4.8140    -0.6580    -0.4340 ca         1 RDE       0.160100
      5 OAN          5.4240    -1.6580    -1.1000 os         1 RDE      -0.325100
      6 CAA          6.8020    -1.8730    -0.8760 c3         1 RDE       0.144900
      7 CAJ          5.4440     0.1590     0.4930 ca         1 RDE      -0.252000
      8 CAS          4.7380     1.1670     1.1560 ca         1 RDE       0.306000
      9 NAD          5.3790     2.0070     2.0480 nv         1 RDE      -1.062000
     10 CAZ          3.3800     1.3350     0.8710 ca         1 RDE       0.006100
     11 OAO          2.6790     2.2990     1.5460 os         1 RDE      -0.360100
     12 CAB          2.7430     3.5850     0.9400 c3         1 RDE       0.139900
     13 CAY          2.7370     0.5260    -0.0660 ca         1 RDE      -0.039300
     14 CAM          1.2620     0.6780    -0.3280 c3         1 RDE      -0.027100
     15 CAL          0.4880    -0.2760     0.5640 c3         1 RDE       0.173600
     16 OAQ         -0.9060    -0.1200     0.2520 os         1 RDE      -0.434100
     17 CAR         -1.7760    -0.8810     0.8780 c          1 RDE       0.636700
     18 OAE         -1.4530    -1.6930     1.7330 o          1 RDE      -0.542000
     19 CAX         -3.1640    -0.6780     0.4590 ca         1 RDE      -0.298600
     20 CAK         -3.5130     0.2660    -0.5130 ca         1 RDE       0.033000
     21 CAV         -4.8180     0.4300    -0.9030 ca         1 RDE       0.012000
     22 CLAH        -5.2410     1.6000    -2.1030 cl         1 RDE      -0.178000
     23 CAT         -5.8320    -0.3570    -0.3330 ca         1 RDE       0.224100
     24 OAF         -7.0780    -0.1610    -0.7560 oh         1 RDE      -0.505100
     25 CAI         -5.5010    -1.2930     0.6330 ca         1 RDE      -0.285000
     26 CAU         -4.1800    -1.4630     1.0400 ca         1 RDE       0.266100
     27 OAG         -3.9380    -2.3770     1.9740 oh         1 RDE      -0.538100
     28 HAC1         2.3790    -1.6590    -3.5360 h1         1 RDE       0.034700
     29 HAC2         2.5830     0.0560    -3.1360 h1         1 RDE       0.034700
     30 HAC3         4.0030    -0.9980    -3.2830 h1         1 RDE       0.034700
     31 HAA1         7.0130    -2.1290     0.1660 h1         1 RDE       0.042033
     32 HAA2         7.0900    -2.7110    -1.5070 h1         1 RDE       0.042033
     33 HAA3         7.4030    -1.0030    -1.1530 h1         1 RDE       0.042033
     34 HAJ1         6.4920     0.0250     0.7300 ha         1 RDE       0.121000
     35 HAD          4.7900     2.3930     2.7690 hn         1 RDE       0.453000
     36 HAC          6.2340     1.6390     2.4340 hn         1 RDE       0.453000
     37 HAB1         3.7710     3.9480     0.8690 h1         1 RDE       0.037700
     38 HAB2         2.3050     3.5760    -0.0620 h1         1 RDE       0.037700
     39 HAB3         2.1710     4.2680     1.5660 h1         1 RDE       0.037700
     40 HAM1         0.9340     1.7000    -0.1350 hc         1 RDE       0.064200
     41 HAM2         1.0340     0.4650    -1.3730 hc         1 RDE       0.064200
     42 HAL1         0.7900    -1.3080     0.3800 h1         1 RDE       0.065700
     43 HAL2         0.6580    -0.0460     1.6180 h1         1 RDE       0.065700
     44 HAK1        -2.7490     0.8800    -0.9700 ha         1 RDE       0.144000
     45 HAA         -7.6880    -0.7660    -0.3170 ho         1 RDE       0.476000
     46 HAI1        -6.2740    -1.9050     1.0830 ha         1 RDE       0.137000
     47 HAB         -2.9730    -2.3750     2.1560 ho         1 RDE       0.522000
@<TRIPOS>BOND
     1     1     2 1   
     2     1    28 1   
     3     1    29 1   
     4     1    30 1   
     5     2     3 1   
     6     3     4 ar  
     7     3    13 ar  
     8     4     5 1   
     9     4     7 ar  
    10     5     6 1   
    11     6    31 1   
    12     6    32 1   
    13     6    33 1   
    14     7     8 ar  
    15     7    34 1   
    16     8     9 1   
    17     8    10 ar  
    18     9    35 1   
    19     9    36 1   
    20    10    11 1   
    21    10    13 ar  
    22    11    12 1   
    23    12    37 1   
    24    12    38 1   
    25    12    39 1   
    26    13    14 1   
    27    14    15 1   
    28    14    40 1   
    29    14    41 1   
    30    15    16 1   
    31    15    42 1   
    32    15    43 1   
    33    16    17 1   
    34    17    18 2   
    35    17    19 1   
    36    19    20 ar  
    37    19    26 ar  
    38    20    21 ar  
    39    20    44 1   
    40    21    22 1   
    41    21    23 ar  
    42    23    24 1   
    43    23    25 ar  
    44    24    45 1   
    45    25    26 ar  
    46    25    46 1   
    47    26    27 1   
    48    27    47 1   
@<TRIPOS>SUBSTRUCTURE
     1 RDE         1 TEMP              0 ****  ****    0 ROOT
