@<TRIPOS>MOLECULE
RDF
   69    71     1     0     0
SMALL
abcg2


@<TRIPOS>ATOM
      1 C1          51.2880    17.3920    -8.9330 c6         1 RDF       0.424300
      2 O1          51.2460    18.2220    -7.8000 os         1 RDF      -0.628400
      3 C2          51.2880    15.9070    -8.5580 c6         1 RDF       0.084300
      4 O2          51.5920    15.1220    -9.6900 oh         1 RDF      -0.699000
      5 C3          49.9500    15.5350    -7.9120 c6         1 RDF       0.136300
      6 O3          49.8250    14.1650    -7.6540 oh         1 RDF      -0.734000
      7 C4          48.7930    15.9510    -8.8110 c6         1 RDF       0.136300
      8 O4          47.5530    15.7600    -8.1730 oh         1 RDF      -0.745000
      9 C5          48.9090    17.4290    -9.1830 c6         1 RDF       0.178300
     10 O5          50.1920    17.6910    -9.7450 os         1 RDF      -0.488000
     11 C6          47.8800    17.8540   -10.2100 c3         1 RDF      -0.077100
     12 P           52.6200    18.5860    -6.9470 p5         1 RDF       1.357700
     13 O1P         53.7230    17.6470    -7.3470 o          1 RDF      -0.819000
     14 O2P         52.8580    20.0650    -7.0360 o          1 RDF      -0.819000
     15 N           51.9900    18.2380    -5.3960 n7         1 RDF      -0.945500
     16 CA          52.9570    18.0890    -4.3250 c3         1 RDF       0.151500
     17 C           53.8020    16.8100    -4.3980 c          1 RDF       0.578100
     18 O           55.0160    16.8320    -4.2200 o          1 RDF      -0.660100
     19 CB          52.2460    18.1860    -2.9720 c3         1 RDF      -0.072400
     20 CG          53.1440    18.1460    -1.7330 c3         1 RDF      -0.063700
     21 CD1         54.1720    19.2730    -1.7270 c3         1 RDF      -0.083600
     22 CD2         52.2790    18.2010    -0.4780 c3         1 RDF      -0.083600
     23 N1          53.1120    15.6830    -4.5990 ns         1 RDF      -0.466900
     24 CA1         53.7000    14.3860    -4.8110 c3         1 RDF      -0.021300
     25 C7          52.7300    13.5100    -5.6280 c          1 RDF       0.733000
     26 O6          51.5430    13.9180    -5.6970 o          1 RDF      -0.733500
     27 CB1         54.0640    13.6930    -3.4840 c3         1 RDF      -0.009200
     28 CG1         52.8870    13.4300    -2.6050 cc         1 RDF      -0.078400
     29 CD11        52.3350    14.2850    -1.6940 cd         1 RDF      -0.183100
     30 CD21        52.0830    12.2430    -2.5640 ca         1 RDF      -0.076800
     31 NE1         51.2470    13.7090    -1.0970 na         1 RDF      -0.238700
     32 CE2         51.0700    12.4550    -1.6020 ca         1 RDF      -0.050200
     33 CE3         52.1350    11.0150    -3.2360 ca         1 RDF      -0.016000
     34 CZ2         50.1190    11.4810    -1.2980 ca         1 RDF      -0.155000
     35 CZ3         51.1980    10.0470    -2.9350 ca         1 RDF      -0.171000
     36 CH2         50.1980    10.2790    -1.9750 ca         1 RDF      -0.106000
     37 OXT         53.1950    12.4760    -6.1220 o          1 RDF      -0.733500
     38 H1          52.1700    17.6070    -9.5460 h2         1 RDF       0.075700
     39 H2          52.0980    15.7320    -7.8460 h1         1 RDF       0.134700
     40 HO2         50.9640    15.3170   -10.3930 ho         1 RDF       0.477000
     41 H3          49.8680    16.1200    -6.9820 h1         1 RDF       0.046700
     42 HO3         50.4690    13.9410    -6.9380 ho         1 RDF       0.535000
     43 H4          48.8350    15.3570    -9.7410 h1         1 RDF       0.022700
     44 HO4         47.5600    14.8730    -7.7970 ho         1 RDF       0.518000
     45 H5          48.7710    18.0250    -8.2720 h1         1 RDF       0.067700
     46 H61         46.8730    17.7170    -9.8190 hc         1 RDF       0.027367
     47 H62         47.9970    18.9080   -10.4630 hc         1 RDF       0.027367
     48 H63         47.9710    17.2680   -11.1270 hc         1 RDF       0.027367
     49 H           51.2460    17.5530    -5.3720 hn         1 RDF       0.432000
     50 HA          53.6650    18.9190    -4.4070 h1         1 RDF       0.077700
     51 HB2         51.6780    19.1210    -2.9680 hc         1 RDF       0.038700
     52 HB3         51.5070    17.3780    -2.9020 hc         1 RDF       0.038700
     53 HG          53.6910    17.1970    -1.7210 hc         1 RDF       0.056700
     54 HD11        54.8560    19.2030    -2.5710 hc         1 RDF       0.023200
     55 HD12        53.6810    20.2490    -1.7690 hc         1 RDF       0.023200
     56 HD13        54.7710    19.2440    -0.8160 hc         1 RDF       0.023200
     57 HD21        52.8860    18.1320     0.4260 hc         1 RDF       0.023200
     58 HD22        51.7210    19.1400    -0.4310 hc         1 RDF       0.023200
     59 HD23        51.5510    17.3870    -0.4530 hc         1 RDF       0.023200
     60 H6          52.1270    15.7170    -4.8120 hn         1 RDF       0.333500
     61 HA1         54.6230    14.5020    -5.3870 h1         1 RDF       0.074700
     62 HB21        54.5750    12.7560    -3.7160 hc         1 RDF       0.040200
     63 HB31        54.7900    14.3220    -2.9650 hc         1 RDF       0.040200
     64 HD1         52.6490    15.2800    -1.4210 h4         1 RDF       0.211000
     65 HE1         50.6910    14.1350    -0.3760 hn         1 RDF       0.328000
     66 HE3         52.8920    10.8380    -3.9900 ha         1 RDF       0.145000
     67 HZ2         49.3480    11.6560    -0.5580 ha         1 RDF       0.087000
     68 HZ3         51.2270     9.0940    -3.4470 ha         1 RDF       0.094000
     69 HH2         49.4770     9.5000    -1.7600 ha         1 RDF       0.081000
@<TRIPOS>BOND
     1     1     2 1   
     2     1     3 1   
     3     1    10 1   
     4     1    38 1   
     5     2    12 1   
     6     3     4 1   
     7     3     5 1   
     8     3    39 1   
     9     4    40 1   
    10     5     6 1   
    11     5     7 1   
    12     5    41 1   
    13     6    42 1   
    14     7     8 1   
    15     7     9 1   
    16     7    43 1   
    17     8    44 1   
    18     9    10 1   
    19     9    11 1   
    20     9    45 1   
    21    11    46 1   
    22    11    47 1   
    23    11    48 1   
    24    12    13 1   
    25    12    14 1   
    26    12    15 1   
    27    15    16 1   
    28    15    49 1   
    29    16    17 1   
    30    16    19 1   
    31    16    50 1   
    32    17    18 2   
    33    17    23 1   
    34    19    20 1   
    35    19    51 1   
    36    19    52 1   
    37    20    21 1   
    38    20    22 1   
    39    20    53 1   
    40    21    54 1   
    41    21    55 1   
    42    21    56 1   
    43    22    57 1   
    44    22    58 1   
    45    22    59 1   
    46    23    24 1   
    47    23    60 1   
    48    24    25 1   
    49    24    27 1   
    50    24    61 1   
    51    25    26 1   
    52    25    37 1   
    53    27    28 1   
    54    27    62 1   
    55    27    63 1   
    56    28    29 2   
    57    28    30 1   
    58    29    31 1   
    59    29    64 1   
    60    30    32 ar  
    61    30    33 ar  
    62    31    32 1   
    63    31    65 1   
    64    32    34 ar  
    65    33    35 ar  
    66    33    66 1   
    67    34    36 ar  
    68    34    67 1   
    69    35    36 ar  
    70    35    68 1   
    71    36    69 1   
@<TRIPOS>SUBSTRUCTURE
     1 RDF         1 TEMP              0 ****  ****    0 ROOT
