@<TRIPOS>MOLECULE
RDF
   69    71     1     0     0
SMALL
No Charge or Current Charge


@<TRIPOS>ATOM
      1 C1          51.2290    17.3980    -8.9910 c6         1 RDF       0.424300
      2 O1          51.3050    18.1070    -7.7520 os         1 RDF      -0.628400
      3 C2          51.3240    15.8310    -8.8310 c6         1 RDF       0.084300
      4 O2          51.3030    15.1720   -10.1310 oh         1 RDF      -0.699000
      5 C3          50.1200    15.3680    -7.9420 c6         1 RDF       0.136300
      6 O3          50.1350    13.9480    -7.6840 oh         1 RDF      -0.734000
      7 C4          48.7700    15.8010    -8.5940 c6         1 RDF       0.136300
      8 O4          47.6800    15.3960    -7.7450 oh         1 RDF      -0.745000
      9 C5          48.7900    17.3440    -8.8530 c6         1 RDF       0.178300
     10 O5          49.9650    17.7230    -9.6190 os         1 RDF      -0.488000
     11 C6          47.5610    17.8340    -9.6600 c3         1 RDF      -0.077100
     12 P           52.7430    18.3310    -7.0960 p5         1 RDF       1.357700
     13 O1P         53.6710    17.2010    -7.3240 o          1 RDF      -0.819000
     14 O2P         53.3520    19.6680    -7.3150 o          1 RDF      -0.819000
     15 N           52.2100    18.2110    -5.5630 n7         1 RDF      -0.945500
     16 CA          53.1250    18.1200    -4.3830 c3         1 RDF       0.151500
     17 C           54.0310    16.8300    -4.3530 c          1 RDF       0.578100
     18 O           55.2450    16.8710    -4.1810 o          1 RDF      -0.660100
     19 CB          52.2730    18.2440    -3.0900 c3         1 RDF      -0.072400
     20 CG          53.0720    18.2860    -1.7550 c3         1 RDF      -0.063700
     21 CD1         54.0310    19.4970    -1.6680 c3         1 RDF      -0.083600
     22 CD2         52.1150    18.2610    -0.5410 c3         1 RDF      -0.083600
     23 N1          53.3640    15.6350    -4.5570 ns         1 RDF      -0.466900
     24 CA1         53.9940    14.2970    -4.6510 c3         1 RDF      -0.021300
     25 C7          53.2320    13.3830    -5.6620 c          1 RDF       0.733000
     26 O6          52.0920    13.6880    -5.9980 o          1 RDF      -0.733500
     27 CB1         54.1520    13.6410    -3.2560 c3         1 RDF      -0.009200
     28 CG1         52.8550    13.4550    -2.5080 cc         1 RDF      -0.078400
     29 CD11        52.3040    14.3150    -1.5620 cd         1 RDF      -0.183100
     30 CD21        51.9340    12.3550    -2.6170 ca         1 RDF      -0.076800
     31 NE1         51.0690    13.7970    -1.1020 na         1 RDF      -0.238700
     32 CE2         50.8890    12.6010    -1.7700 ca         1 RDF      -0.050200
     33 CE3         51.9950    11.1860    -3.3910 ca         1 RDF      -0.016000
     34 CZ2         49.8210    11.7030    -1.6410 ca         1 RDF      -0.155000
     35 CZ3         50.9320    10.2630    -3.2820 ca         1 RDF      -0.171000
     36 CH2         49.8480    10.5220    -2.4120 ca         1 RDF      -0.106000
     37 OXT         53.8510    12.4610    -6.1750 o          1 RDF      -0.733500
     38 H1          52.0440    17.7370    -9.6520 h2         1 RDF       0.075700
     39 H2          52.2510    15.5720    -8.3030 h1         1 RDF       0.134700
     40 HO2         50.5640    15.5780   -10.6380 ho         1 RDF       0.477000
     41 H3          50.2020    15.8950    -6.9790 h1         1 RDF       0.046700
     42 HO3         50.9050    13.7940    -7.0470 ho         1 RDF       0.535000
     43 H4          48.6730    15.2930    -9.5650 h1         1 RDF       0.022700
     44 HO4         47.9710    14.5190    -7.3940 ho         1 RDF       0.518000
     45 H5          48.8010    17.8770    -7.8900 h1         1 RDF       0.067700
     46 H61         46.6290    17.6460    -9.1160 hc         1 RDF       0.027367
     47 H62         47.6190    18.9130    -9.8480 hc         1 RDF       0.027367
     48 H63         47.4920    17.3260   -10.6290 hc         1 RDF       0.027367
     49 H           51.6500    17.3750    -5.6560 hn         1 RDF       0.432000
     50 HA          53.8160    18.9720    -4.4120 h1         1 RDF       0.077700
     51 HB2         51.6600    19.1520    -3.1570 hc         1 RDF       0.038700
     52 HB3         51.5710    17.4010    -3.0520 hc         1 RDF       0.038700
     53 HG          53.6860    17.3800    -1.6940 hc         1 RDF       0.056700
     54 HD11        54.8040    19.4490    -2.4420 hc         1 RDF       0.023200
     55 HD12        53.4820    20.4400    -1.7840 hc         1 RDF       0.023200
     56 HD13        54.5400    19.5170    -0.6960 hc         1 RDF       0.023200
     57 HD21        52.6800    18.2240     0.3980 hc         1 RDF       0.023200
     58 HD22        51.4800    19.1550    -0.5250 hc         1 RDF       0.023200
     59 HD23        51.4620    17.3800    -0.5770 hc         1 RDF       0.023200
     60 H6          52.3640    15.6820    -4.6950 hn         1 RDF       0.333500
     61 HA1         54.9980    14.4270    -5.0730 h1         1 RDF       0.074700
     62 HB21        54.6530    12.6730    -3.3710 hc         1 RDF       0.040200
     63 HB31        54.8290    14.2590    -2.6540 hc         1 RDF       0.040200
     64 HD1         52.7000    15.2540    -1.1900 h4         1 RDF       0.211000
     65 HE1         50.4470    14.2110    -0.4150 hn         1 RDF       0.328000
     66 HE3         52.8360    10.9900    -4.0520 ha         1 RDF       0.145000
     67 HZ2         48.9960    11.9070    -0.9640 ha         1 RDF       0.087000
     68 HZ3         50.9490     9.3490    -3.8700 ha         1 RDF       0.094000
     69 HH2         49.0330     9.8050    -2.3330 ha         1 RDF       0.081000
@<TRIPOS>BOND
     1     1     2 1   
     2     1     3 1   
     3     1    10 1   
     4     1    38 1   
     5     2    12 1   
     6     3     4 1   
     7     3     5 1   
     8     3    39 1   
     9     4    40 1   
    10     5     6 1   
    11     5     7 1   
    12     5    41 1   
    13     6    42 1   
    14     7     8 1   
    15     7     9 1   
    16     7    43 1   
    17     8    44 1   
    18     9    10 1   
    19     9    11 1   
    20     9    45 1   
    21    11    46 1   
    22    11    47 1   
    23    11    48 1   
    24    12    13 1   
    25    12    14 1   
    26    12    15 1   
    27    15    16 1   
    28    15    49 1   
    29    16    17 1   
    30    16    19 1   
    31    16    50 1   
    32    17    18 2   
    33    17    23 1   
    34    19    20 1   
    35    19    51 1   
    36    19    52 1   
    37    20    21 1   
    38    20    22 1   
    39    20    53 1   
    40    21    54 1   
    41    21    55 1   
    42    21    56 1   
    43    22    57 1   
    44    22    58 1   
    45    22    59 1   
    46    23    24 1   
    47    23    60 1   
    48    24    25 1   
    49    24    27 1   
    50    24    61 1   
    51    25    26 1   
    52    25    37 1   
    53    27    28 1   
    54    27    62 1   
    55    27    63 1   
    56    28    29 2   
    57    28    30 1   
    58    29    31 1   
    59    29    64 1   
    60    30    32 ar  
    61    30    33 ar  
    62    31    32 1   
    63    31    65 1   
    64    32    34 ar  
    65    33    35 ar  
    66    33    66 1   
    67    34    36 ar  
    68    34    67 1   
    69    35    36 ar  
    70    35    68 1   
    71    36    69 1   
@<TRIPOS>SUBSTRUCTURE
     1 RDF         1 TEMP              0 ****  ****    0 ROOT
