@<TRIPOS>MOLECULE
RDH
   21    21     1     0     0
SMALL
No Charge or Current Charge


@<TRIPOS>ATOM
      1 C01         -1.3710    -0.1860    76.5380 c2         1 RDH      -0.419000
      2 C02         -0.0740     0.2100    76.5720 ce         1 RDH       0.014900
      3 C04          1.8500    -1.0410    77.3690 ca         1 RDH       0.154100
      4 C05          1.5730    -0.8400    78.7350 ca         1 RDH      -0.186000
      5 C06          2.5330    -1.1800    79.7000 ca         1 RDH      -0.130000
      6 C07          3.7660    -1.7280    79.3070 ca         1 RDH      -0.133000
      7 C08          4.0600    -1.9500    77.9400 ca         1 RDH      -0.126600
      8 C09          5.3920    -2.5510    77.5080 c          1 RDH       0.718600
      9 C12          3.0790    -1.6000    76.9790 ca         1 RDH      -0.108000
     10 C13          0.3660     1.6630    76.8350 c          1 RDH       0.701200
     11 O03          0.9210    -0.7390    76.3940 os         1 RDH      -0.277200
     12 O10          6.2170    -2.8320    78.3670 o          1 RDH      -0.741000
     13 O11          5.5940    -2.7350    76.3160 o          1 RDH      -0.741000
     14 O14         -0.4970     2.5050    77.0580 o          1 RDH      -0.712500
     15 O15          1.5550     1.9520    76.7800 o          1 RDH      -0.712500
     16 H1          -2.1900     0.5170    76.6850 ha         1 RDH       0.146000
     17 H2          -1.6400    -1.2270    76.3620 ha         1 RDH       0.146000
     18 H3           0.6180    -0.4280    79.0520 ha         1 RDH       0.104000
     19 H4           2.3210    -1.0230    80.7550 ha         1 RDH       0.067000
     20 H5           4.4940    -1.9860    80.0730 ha         1 RDH       0.106000
     21 H6           3.2670    -1.7580    75.9200 ha         1 RDH       0.131000
@<TRIPOS>BOND
     1     1     2 2   
     2     1    16 1   
     3     1    17 1   
     4     2    10 1   
     5     2    11 1   
     6     3     4 ar  
     7     3     9 ar  
     8     3    11 1   
     9     4     5 ar  
    10     4    18 1   
    11     5     6 ar  
    12     5    19 1   
    13     6     7 ar  
    14     6    20 1   
    15     7     8 1   
    16     7     9 ar  
    17     8    12 1   
    18     8    13 1   
    19     9    21 1   
    20    10    14 1   
    21    10    15 1   
@<TRIPOS>SUBSTRUCTURE
     1 RDH         1 TEMP              0 ****  ****    0 ROOT
