@<TRIPOS>MOLECULE
RDH
   21    21     1     0     0
SMALL
bcc


@<TRIPOS>ATOM
      1 C01         -1.3330    -0.1750    76.5130 c2         1 RDH      -0.319000
      2 C02         -0.0510     0.1490    76.6370 ce         1 RDH       0.014900
      3 C04          1.8160    -1.0560    77.3990 ca         1 RDH       0.154100
      4 C05          1.5490    -0.8440    78.7470 ca         1 RDH      -0.204000
      5 C06          2.5240    -1.1620    79.6840 ca         1 RDH      -0.148000
      6 C07          3.7440    -1.6920    79.2920 ca         1 RDH      -0.151000
      7 C08          4.0100    -1.9120    77.9410 ca         1 RDH      -0.126600
      8 C09          5.3540    -2.4850    77.4890 c          1 RDH       0.929200
      9 C12          3.0370    -1.5880    77.0030 ca         1 RDH      -0.126000
     10 C13          0.4550     1.5760    76.8790 c          1 RDH       0.911800
     11 O03          0.8990    -0.8200    76.4220 os         1 RDH      -0.277200
     12 O10          6.1650    -2.7730    78.3890 o          1 RDH      -0.846300
     13 O11          5.5170    -2.6140    76.2600 o          1 RDH      -0.846300
     14 O14         -0.4000     2.3940    77.2600 o          1 RDH      -0.817800
     15 O15          1.6590     1.7720    76.6450 o          1 RDH      -0.817800
     16 H1          -2.0960     0.5830    76.5980 ha         1 RDH       0.096000
     17 H2          -1.6520    -1.1880    76.3020 ha         1 RDH       0.096000
     18 H3           0.5970    -0.4410    79.0700 ha         1 RDH       0.122000
     19 H4           2.3190    -0.9940    80.7340 ha         1 RDH       0.085000
     20 H5           4.4920    -1.9380    80.0330 ha         1 RDH       0.124000
     21 H6           3.2300    -1.7490    75.9500 ha         1 RDH       0.149000
@<TRIPOS>BOND
     1     1     2 2   
     2     1    16 1   
     3     1    17 1   
     4     2    10 1   
     5     2    11 1   
     6     3     4 ar  
     7     3     9 ar  
     8     3    11 1   
     9     4     5 ar  
    10     4    18 1   
    11     5     6 ar  
    12     5    19 1   
    13     6     7 ar  
    14     6    20 1   
    15     7     8 1   
    16     7     9 ar  
    17     8    12 1   
    18     8    13 1   
    19     9    21 1   
    20    10    14 1   
    21    10    15 1   
@<TRIPOS>SUBSTRUCTURE
     1 RDH         1 TEMP              0 ****  ****    0 ROOT
