@<TRIPOS>MOLECULE
RDJ
   30    30     1     0     0
SMALL
No Charge or Current Charge


@<TRIPOS>ATOM
      1 C4          45.7240     6.5390    64.1300 cc         1 RDJ       0.497300
      2 C5          46.9520     6.5930    62.4390 cc         1 RDJ       0.424300
      3 C6          47.9370     6.1030    61.4040 c3         1 RDJ      -0.081000
      4 N1          45.4680     7.6970    63.5530 nd         1 RDJ      -0.328000
      5 C7          48.9450     7.1970    60.9780 c3         1 RDJ      -0.087600
      6 C8          47.2170     5.4870    60.1830 c3         1 RDJ      -0.087600
      7 N2          46.2710     7.7310    62.4380 nd         1 RDJ      -0.355000
      8 O           43.9530     3.2940    64.1460 o          1 RDJ      -0.576100
      9 C2          45.1000     3.3890    64.5600 c          1 RDJ       0.602100
     10 N           46.1520     2.7320    63.9590 ns         1 RDJ      -0.504900
     11 C1          46.0340     1.9100    62.7540 c3         1 RDJ       0.104000
     12 C           47.3910     1.7550    62.0500 c3         1 RDJ      -0.113100
     13 C3          45.4760     4.2560    65.7690 c3         1 RDJ      -0.082400
     14 S           44.8920     6.0120    65.5890 ss         1 RDJ      -0.200300
     15 O1          46.6520     5.7920    63.4910 os         1 RDJ      -0.295000
     16 H1          48.5230     5.2990    61.8670 hc         1 RDJ       0.067700
     17 H2          49.4740     7.5960    61.8530 hc         1 RDJ       0.046200
     18 H3          49.6930     6.7890    60.2880 hc         1 RDJ       0.046200
     19 H4          48.4350     8.0280    60.4770 hc         1 RDJ       0.046200
     20 H5          46.5430     4.6810    60.4980 hc         1 RDJ       0.046200
     21 H6          46.6220     6.2440    59.6580 hc         1 RDJ       0.046200
     22 H7          47.9410     5.0660    59.4750 hc         1 RDJ       0.046200
     23 H8          47.0710     2.8640    64.3640 hn         1 RDJ       0.315500
     24 H9          45.3210     2.3800    62.0630 h1         1 RDJ       0.054700
     25 H10         45.6450     0.9220    63.0330 h1         1 RDJ       0.054700
     26 H11         47.2810     1.1480    61.1430 hc         1 RDJ       0.043033
     27 H12         47.7920     2.7340    61.7610 hc         1 RDJ       0.043033
     28 H13         48.1150     1.2610    62.7080 hc         1 RDJ       0.043033
     29 H14         45.0240     3.8060    66.6600 h1         1 RDJ       0.092200
     30 H15         46.5650     4.2500    65.8940 h1         1 RDJ       0.092200
@<TRIPOS>BOND
     1     1     4 2   
     2     1    14 1   
     3     1    15 1   
     4     2     3 1   
     5     2     7 2   
     6     2    15 1   
     7     3     5 1   
     8     3     6 1   
     9     3    16 1   
    10     4     7 1   
    11     5    17 1   
    12     5    18 1   
    13     5    19 1   
    14     6    20 1   
    15     6    21 1   
    16     6    22 1   
    17     8     9 2   
    18     9    10 1   
    19     9    13 1   
    20    10    11 1   
    21    10    23 1   
    22    11    12 1   
    23    11    24 1   
    24    11    25 1   
    25    12    26 1   
    26    12    27 1   
    27    12    28 1   
    28    13    14 1   
    29    13    29 1   
    30    13    30 1   
@<TRIPOS>SUBSTRUCTURE
     1 RDJ         1 TEMP              0 ****  ****    0 ROOT
