@<TRIPOS>MOLECULE
RDJ
   30    30     1     0     0
SMALL
bcc


@<TRIPOS>ATOM
      1 C4          45.8620     6.6450    64.2930 cc         1 RDJ       0.541700
      2 C5          47.1100     6.9170    62.6120 cc         1 RDJ       0.468700
      3 C6          48.1700     6.5790    61.6260 c3         1 RDJ      -0.081000
      4 N1          45.4820     7.7380    63.7370 nd         1 RDJ      -0.328000
      5 C7          48.2510     7.6480    60.5440 c3         1 RDJ      -0.087600
      6 C8          47.9250     5.1910    61.0260 c3         1 RDJ      -0.087600
      7 N2          46.3040     7.9150    62.6470 nd         1 RDJ      -0.355000
      8 O           44.3490     4.0980    63.5180 o          1 RDJ      -0.576100
      9 C2          45.3050     3.6520    64.1300 c          1 RDJ       0.669100
     10 N           46.0590     2.6370    63.6980 ns         1 RDJ      -0.571900
     11 C1          45.8080     1.9480    62.4450 c3         1 RDJ       0.104000
     12 C           46.9650     1.0280    62.1100 c3         1 RDJ      -0.113100
     13 C3          45.7400     4.2130    65.4780 c3         1 RDJ      -0.130300
     14 S           45.2170     5.9220    65.7270 ss         1 RDJ      -0.152400
     15 O1          46.8890     6.0770    63.6480 os         1 RDJ      -0.383800
     16 H1          49.1220     6.5550    62.1690 hc         1 RDJ       0.067700
     17 H2          48.4300     8.6380    60.9620 hc         1 RDJ       0.046200
     18 H3          49.0710     7.4190    59.8640 hc         1 RDJ       0.046200
     19 H4          47.3310     7.6860    59.9600 hc         1 RDJ       0.046200
     20 H5          47.9140     4.4080    61.7840 hc         1 RDJ       0.046200
     21 H6          46.9770     5.1630    60.4880 hc         1 RDJ       0.046200
     22 H7          48.7190     4.9560    60.3180 hc         1 RDJ       0.046200
     23 H8          46.8220     2.3130    64.2720 hn         1 RDJ       0.315500
     24 H9          45.6780     2.6890    61.6540 h1         1 RDJ       0.054700
     25 H10         44.8790     1.3780    62.5070 h1         1 RDJ       0.054700
     26 H11         46.7790     0.5280    61.1610 hc         1 RDJ       0.043033
     27 H12         47.9000     1.5820    62.0190 hc         1 RDJ       0.043033
     28 H13         47.0970     0.2580    62.8710 hc         1 RDJ       0.043033
     29 H14         45.2420     3.6590    66.2780 h1         1 RDJ       0.092200
     30 H15         46.8130     4.1140    65.6390 h1         1 RDJ       0.092200
@<TRIPOS>BOND
     1     1     4 2   
     2     1    14 1   
     3     1    15 1   
     4     2     3 1   
     5     2     7 2   
     6     2    15 1   
     7     3     5 1   
     8     3     6 1   
     9     3    16 1   
    10     4     7 1   
    11     5    17 1   
    12     5    18 1   
    13     5    19 1   
    14     6    20 1   
    15     6    21 1   
    16     6    22 1   
    17     8     9 2   
    18     9    10 1   
    19     9    13 1   
    20    10    11 1   
    21    10    23 1   
    22    11    12 1   
    23    11    24 1   
    24    11    25 1   
    25    12    26 1   
    26    12    27 1   
    27    12    28 1   
    28    13    14 1   
    29    13    29 1   
    30    13    30 1   
@<TRIPOS>SUBSTRUCTURE
     1 RDJ         1 TEMP              0 ****  ****    0 ROOT
