@<TRIPOS>MOLECULE
RDK
   43    46     1     0     0
SMALL
No Charge or Current Charge


@<TRIPOS>ATOM
      1 N1         -20.0320     4.9680    27.9200 ns         1 RDK      -0.143000
      2 C4         -22.2500     3.7870    32.9760 ca         1 RDK       0.001000
      3 C5         -22.2920     2.3940    33.1180 ca         1 RDK      -0.108000
      4 C6         -22.2730     1.5820    31.9800 ca         1 RDK       0.168000
      5 C7         -22.2170     2.1570    30.7030 ca         1 RDK      -0.117000
      6 C8         -22.1810     3.5620    30.5280 ca         1 RDK       0.013700
      7 C10        -18.7300     5.0850    27.3430 ca         1 RDK      -0.093000
      8 C13        -17.1020     6.3200    26.0300 ca         1 RDK      -0.090000
      9 C15        -17.6510     8.4690    25.0250 ca         1 RDK      -0.110000
     10 C17        -19.3230     7.2750    26.3340 ca         1 RDK      -0.115000
     11 C9         -20.7060     3.8840    28.4780 c          1 RDK       0.605100
     12 C1         -22.1220     4.1640    29.0940 c6         1 RDK      -0.125700
     13 C3         -22.1940     4.3760    31.6940 ca         1 RDK      -0.279500
     14 S          -22.1350     6.1710    31.6380 sy         1 RDK       1.162600
     15 O          -20.9760     6.6260    32.4060 o          1 RDK      -0.532500
     16 O1         -23.4670     6.7290    31.8830 o          1 RDK      -0.532500
     17 N          -21.7710     6.5010    30.0530 n7         1 RDK      -0.822300
     18 C2         -22.5200     5.6720    29.0890 c6         1 RDK       0.179800
     19 C          -23.1590     3.4440    28.1610 c3         1 RDK      -0.092100
     20 C18        -18.4010     6.2300    26.5760 ca         1 RDK      -0.021000
     21 C16        -18.9460     8.3880    25.5630 ca         1 RDK      -0.083000
     22 C14        -16.7290     7.4360    25.2570 ca         1 RDK      -0.074000
     23 C12        -16.1840     5.2800    26.2680 ca         1 RDK       0.357900
     24 N2         -16.4820     4.1880    27.0060 nb         1 RDK      -0.645000
     25 C11        -17.7270     4.0990    27.5290 ca         1 RDK       0.339900
     26 H1         -20.5580     5.8310    27.9120 hn         1 RDK       0.160000
     27 H2         -22.2610     4.4100    33.8690 ha         1 RDK       0.139000
     28 H3         -22.3340     1.9460    34.1070 ha         1 RDK       0.140000
     29 H4         -22.1880     1.4890    29.8490 ha         1 RDK       0.128000
     30 H5         -17.3630     9.3320    24.4280 ha         1 RDK       0.121000
     31 H6         -20.3330     7.2420    26.7320 ha         1 RDK       0.108000
     32 H7         -20.7710     6.3090    30.0470 hn         1 RDK       0.506000
     33 H8         -22.3960     6.0870    28.0770 h1         1 RDK       0.085700
     34 H9         -23.5970     5.7630    29.3060 h1         1 RDK       0.085700
     35 H10        -24.1680     3.4710    28.5910 hc         1 RDK       0.053367
     36 H11        -23.2100     3.9240    27.1760 hc         1 RDK       0.053367
     37 H12        -22.9110     2.3920    27.9770 hc         1 RDK       0.053367
     38 H13        -19.6590     9.1890    25.3810 ha         1 RDK       0.117000
     39 H14        -15.7270     7.5050    24.8370 ha         1 RDK       0.122000
     40 H15        -15.1750     5.3220    25.8600 h4         1 RDK       0.025100
     41 H16        -17.9010     3.2130    28.1340 h4         1 RDK       0.039100
     42 Cl         -22.3140    -0.1680    32.1520 cl         1 RDK      -0.192000
     43 O2         -20.2290     2.7550    28.4800 o          1 RDK      -0.589100
@<TRIPOS>BOND
     1     1     7 1   
     2     1    11 1   
     3     1    26 1   
     4     2     3 ar  
     5     2    13 ar  
     6     2    27 1   
     7     3     4 ar  
     8     3    28 1   
     9     4     5 ar  
    10     4    42 1   
    11     5     6 ar  
    12     5    29 1   
    13     6    12 1   
    14     6    13 ar  
    15     7    20 ar  
    16     7    25 ar  
    17     8    20 ar  
    18     8    22 ar  
    19     8    23 ar  
    20     9    21 ar  
    21     9    22 ar  
    22     9    30 1   
    23    10    20 ar  
    24    10    21 ar  
    25    10    31 1   
    26    11    12 1   
    27    11    43 2   
    28    12    18 1   
    29    12    19 1   
    30    13    14 1   
    31    14    15 2   
    32    14    16 2   
    33    14    17 1   
    34    17    18 1   
    35    17    32 1   
    36    18    33 1   
    37    18    34 1   
    38    19    35 1   
    39    19    36 1   
    40    19    37 1   
    41    21    38 1   
    42    22    39 1   
    43    23    24 ar  
    44    23    40 1   
    45    24    25 ar  
    46    25    41 1   
@<TRIPOS>SUBSTRUCTURE
     1 RDK         1 TEMP              0 ****  ****    0 ROOT
