@<TRIPOS>MOLECULE
RDK
   43    46     1     0     0
SMALL
abcg2


@<TRIPOS>ATOM
      1 N1         -20.0980     4.9670    27.9170 ns         1 RDK      -0.143000
      2 C4         -22.3800     2.8820    32.7390 ca         1 RDK       0.001000
      3 C5         -22.2780     1.6020    32.2270 ca         1 RDK      -0.108000
      4 C6         -22.0650     1.4550    30.8620 ca         1 RDK       0.168000
      5 C7         -21.9680     2.5480    30.0170 ca         1 RDK      -0.117000
      6 C8         -22.0870     3.8450    30.5180 ca         1 RDK       0.013700
      7 C10        -18.7830     5.0890    27.4140 ca         1 RDK      -0.093000
      8 C13        -17.2020     5.9570    25.7980 ca         1 RDK      -0.090000
      9 C15        -17.8830     7.4270    24.0080 ca         1 RDK      -0.110000
     10 C17        -19.5420     6.6270    25.5840 ca         1 RDK      -0.115000
     11 C9         -20.4530     5.1330    29.2120 c          1 RDK       0.605100
     12 C1         -21.9590     5.0210    29.5440 c6         1 RDK      -0.125700
     13 C3         -22.2760     3.9880    31.8970 ca         1 RDK      -0.279500
     14 S          -22.3870     5.5860    32.6570 sy         1 RDK       1.162600
     15 O          -21.4910     5.6410    33.7860 o          1 RDK      -0.532500
     16 O1         -23.7840     5.8840    32.8700 o          1 RDK      -0.532500
     17 N          -21.8080     6.6060    31.5170 n7         1 RDK      -0.822300
     18 C2         -22.3780     6.3670    30.1880 c6         1 RDK       0.179800
     19 C          -22.8770     4.8250    28.3300 c3         1 RDK      -0.092100
     20 C18        -18.5440     5.8930    26.2670 ca         1 RDK      -0.021000
     21 C16        -19.2120     7.3750    24.4810 ca         1 RDK      -0.083000
     22 C14        -16.8950     6.7340    24.6570 ca         1 RDK      -0.074000
     23 C12        -16.2080     5.2440    26.5100 ca         1 RDK       0.357900
     24 N2         -16.4540     4.5150    27.5750 nb         1 RDK      -0.645000
     25 C11        -17.7340     4.4350    28.0130 ca         1 RDK       0.339900
     26 H1         -20.8340     4.8400    27.2400 hn         1 RDK       0.160000
     27 H2         -22.5270     3.0250    33.8020 ha         1 RDK       0.139000
     28 H3         -22.3530     0.7380    32.8720 ha         1 RDK       0.140000
     29 H4         -21.7900     2.3850    28.9640 ha         1 RDK       0.128000
     30 H5         -17.6490     8.0230    23.1360 ha         1 RDK       0.121000
     31 H6         -20.5640     6.6120    25.9360 ha         1 RDK       0.108000
     32 H7         -20.7900     6.5500    31.4970 hn         1 RDK       0.506000
     33 H8         -22.0790     7.1890    29.5400 h1         1 RDK       0.085700
     34 H9         -23.4640     6.3930    30.2750 h1         1 RDK       0.085700
     35 H10        -23.9060     4.7250    28.6750 hc         1 RDK       0.053367
     36 H11        -22.8280     5.6950    27.6720 hc         1 RDK       0.053367
     37 H12        -22.6390     3.9360    27.7500 hc         1 RDK       0.053367
     38 H13        -19.9820     7.9370    23.9670 ha         1 RDK       0.117000
     39 H14        -15.8690     6.7720    24.3120 ha         1 RDK       0.122000
     40 H15        -15.1790     5.2930    26.1650 h4         1 RDK       0.025100
     41 H16        -17.9090     3.8150    28.8820 h4         1 RDK       0.039100
     42 CL         -21.9110    -0.1490    30.1910 cl         1 RDK      -0.192000
     43 O2         -19.6460     5.3750    30.1040 o          1 RDK      -0.589100
@<TRIPOS>BOND
     1     1     7 1   
     2     1    11 1   
     3     1    26 1   
     4     2     3 ar  
     5     2    13 ar  
     6     2    27 1   
     7     3     4 ar  
     8     3    28 1   
     9     4     5 ar  
    10     4    42 1   
    11     5     6 ar  
    12     5    29 1   
    13     6    12 1   
    14     6    13 ar  
    15     7    20 ar  
    16     7    25 ar  
    17     8    20 ar  
    18     8    22 ar  
    19     8    23 ar  
    20     9    21 ar  
    21     9    22 ar  
    22     9    30 1   
    23    10    20 ar  
    24    10    21 ar  
    25    10    31 1   
    26    11    12 1   
    27    11    43 2   
    28    12    18 1   
    29    12    19 1   
    30    13    14 1   
    31    14    15 2   
    32    14    16 2   
    33    14    17 1   
    34    17    18 1   
    35    17    32 1   
    36    18    33 1   
    37    18    34 1   
    38    19    35 1   
    39    19    36 1   
    40    19    37 1   
    41    21    38 1   
    42    22    39 1   
    43    23    24 ar  
    44    23    40 1   
    45    24    25 ar  
    46    25    41 1   
@<TRIPOS>SUBSTRUCTURE
     1 RDK         1 TEMP              0 ****  ****    0 ROOT
