@<TRIPOS>MOLECULE
RDL
   37    38     1     0     0
SMALL
No Charge or Current Charge


@<TRIPOS>ATOM
      1 O15          1.1930    -1.0310     5.9510 oh         1 RDL      -0.707000
      2 C15          1.3000    -0.0930     4.8610 c3         1 RDL       0.130600
      3 C14          0.2920    -0.4860     3.7490 c3         1 RDL       0.132300
      4 O14         -0.9550    -0.7670     4.4100 oh         1 RDL      -0.704000
      5 C13          0.1040     0.6110     2.6470 c3         1 RDL       0.091300
      6 O13          1.3670     0.8830     1.9970 oh         1 RDL      -0.724000
      7 C12         -0.9400     0.2010     1.5590 c3         1 RDL       0.141300
      8 O12         -2.2000    -0.0800     2.1820 oh         1 RDL      -0.708000
      9 C11         -1.1230     1.2820     0.4550 c3         1 RDL       0.075000
     10 N9          -1.1020     0.7240    -0.9280 n          1 RDL      -0.313000
     11 C8          -2.3240     0.6610    -1.6560 c          1 RDL       0.491000
     12 O8          -3.3910     1.0320    -1.1700 o          1 RDL      -0.445000
     13 C7          -2.2740     0.1000    -3.1430 c          1 RDL       0.494000
     14 O7          -3.2560    -0.0020    -3.8720 o          1 RDL      -0.489000
     15 C10          0.1020     0.2840    -1.4950 cc         1 RDL       0.217200
     16 C5           0.1440    -0.1940    -2.7950 cd         1 RDL      -0.202600
     17 N6          -1.0170    -0.2670    -3.5630 ns         1 RDL      -0.362100
     18 C4           1.4350    -0.6430    -3.3870 c          1 RDL       0.608200
     19 O4           1.5530    -1.0710    -4.5240 o          1 RDL      -0.524000
     20 N3           2.4980    -0.5410    -2.5500 ns         1 RDL      -0.461500
     21 C2           2.5090    -0.1000    -1.2730 c          1 RDL       0.628000
     22 N1           1.2970     0.2920    -0.8030 ns         1 RDL      -0.533600
     23 O2           3.5180    -0.0590    -0.5990 o          1 RDL      -0.542000
     24 H15O         1.9180    -0.8220     6.5890 ho         1 RDL       0.512000
     25 H151         1.0810     0.9250     5.2120 h1         1 RDL       0.031700
     26 H152         2.3170    -0.0980     4.4480 h1         1 RDL       0.031700
     27 H141         0.6700    -1.3960     3.2620 h1         1 RDL       0.086700
     28 H14O        -0.6550    -1.0820     5.3040 ho         1 RDL       0.516000
     29 H131        -0.2670     1.5250     3.1370 h1         1 RDL       0.084700
     30 H13O         1.9250     1.4070     2.6230 ho         1 RDL       0.513000
     31 H121        -0.5640    -0.7170     1.0860 h1         1 RDL       0.031700
     32 H12O        -1.9470    -0.4120     3.0930 ho         1 RDL       0.535000
     33 H111        -2.0510     1.8360     0.6430 h1         1 RDL       0.088200
     34 H112        -0.3250     2.0310     0.5250 h1         1 RDL       0.088200
     35 HN6         -0.9770    -0.6210    -4.5160 hn         1 RDL       0.358500
     36 HN3          3.3850    -0.8380    -2.9220 hn         1 RDL       0.354500
     37 HN1          1.3180     0.5830     0.1750 hn         1 RDL       0.476000
@<TRIPOS>BOND
     1     1     2 1   
     2     1    24 1   
     3     2     3 1   
     4     2    25 1   
     5     2    26 1   
     6     3     4 1   
     7     3     5 1   
     8     3    27 1   
     9     4    28 1   
    10     5     6 1   
    11     5     7 1   
    12     5    29 1   
    13     6    30 1   
    14     7     8 1   
    15     7     9 1   
    16     7    31 1   
    17     8    32 1   
    18     9    10 1   
    19     9    33 1   
    20     9    34 1   
    21    10    11 1   
    22    10    15 1   
    23    11    12 2   
    24    11    13 1   
    25    13    14 2   
    26    13    17 1   
    27    15    16 2   
    28    15    22 1   
    29    16    17 1   
    30    16    18 1   
    31    17    35 1   
    32    18    19 2   
    33    18    20 1   
    34    20    21 1   
    35    20    36 1   
    36    21    22 1   
    37    21    23 2   
    38    22    37 1   
@<TRIPOS>SUBSTRUCTURE
     1 RDL         1 TEMP              0 ****  ****    0 ROOT
