@<TRIPOS>MOLECULE
RDL
   37    38     1     0     0
SMALL
bcc


@<TRIPOS>ATOM
      1 O15          1.1510    -0.9240     6.0590 oh         1 RDL      -0.584800
      2 C15          0.9220     0.1150     5.1400 c3         1 RDL       0.107400
      3 C14          0.2830    -0.4740     3.8920 c3         1 RDL       0.109100
      4 O14         -0.9410    -1.1160     4.1930 oh         1 RDL      -0.581800
      5 C13          0.1300     0.5920     2.7910 c3         1 RDL       0.068100
      6 O13          1.4020     1.0990     2.4290 oh         1 RDL      -0.601800
      7 C12         -0.5660     0.0660     1.5190 c3         1 RDL       0.118100
      8 O12         -1.8450    -0.4640     1.7260 oh         1 RDL      -0.585800
      9 C11         -0.7200     1.2170     0.5230 c3         1 RDL       0.075000
     10 N9          -0.8870     0.7370    -0.8490 n          1 RDL      -0.380000
     11 C8          -2.1560     0.6980    -1.3920 c          1 RDL       0.633500
     12 O8          -3.1280     1.1020    -0.8060 o          1 RDL      -0.520500
     13 C7          -2.3220     0.1230    -2.7920 c          1 RDL       0.636500
     14 O7          -3.4290     0.0650    -3.2850 o          1 RDL      -0.564500
     15 C10          0.2020     0.3030    -1.5650 cc         1 RDL       0.217200
     16 C5           0.0590    -0.2040    -2.8120 cd         1 RDL      -0.202600
     17 N6          -1.1950    -0.2930    -3.3870 ns         1 RDL      -0.429100
     18 C4           1.2010    -0.6510    -3.5630 c          1 RDL       0.750700
     19 O4           1.1370    -1.1140    -4.6870 o          1 RDL      -0.599500
     20 N3           2.4020    -0.5160    -2.8970 ns         1 RDL      -0.595500
     21 C2           2.5970    -0.0090    -1.6400 c          1 RDL       0.837500
     22 N1           1.4460     0.3960    -1.0080 ns         1 RDL      -0.487100
     23 O2           3.6850     0.0800    -1.1170 o          1 RDL      -0.617500
     24 H15O         1.5970    -0.5510     6.8250 ho         1 RDL       0.413000
     25 H151         0.2490     0.8850     5.5500 h1         1 RDL       0.031700
     26 H152         1.8510     0.6240     4.8640 h1         1 RDL       0.031700
     27 H141         0.9350    -1.2680     3.5020 h1         1 RDL       0.086700
     28 H14O        -1.4790    -0.5330     4.7430 ho         1 RDL       0.417000
     29 H131        -0.4450     1.4390     3.1850 h1         1 RDL       0.084700
     30 H13O         2.0420     0.3780     2.4290 ho         1 RDL       0.414000
     31 H121         0.1070    -0.6990     1.0930 h1         1 RDL       0.031700
     32 H12O        -1.8000    -1.0340     2.5080 ho         1 RDL       0.436000
     33 H111        -1.6000     1.7990     0.7810 h1         1 RDL       0.088200
     34 H112         0.1170     1.9110     0.5540 h1         1 RDL       0.088200
     35 HN6         -1.2580    -0.6900    -4.3180 hn         1 RDL       0.358500
     36 HN3          3.2350    -0.8160    -3.3890 hn         1 RDL       0.354500
     37 HN1          1.5790     0.7870    -0.0850 hn         1 RDL       0.362500
@<TRIPOS>BOND
     1     1     2 1   
     2     1    24 1   
     3     2     3 1   
     4     2    25 1   
     5     2    26 1   
     6     3     4 1   
     7     3     5 1   
     8     3    27 1   
     9     4    28 1   
    10     5     6 1   
    11     5     7 1   
    12     5    29 1   
    13     6    30 1   
    14     7     8 1   
    15     7     9 1   
    16     7    31 1   
    17     8    32 1   
    18     9    10 1   
    19     9    33 1   
    20     9    34 1   
    21    10    11 1   
    22    10    15 1   
    23    11    12 2   
    24    11    13 1   
    25    13    14 2   
    26    13    17 1   
    27    15    16 2   
    28    15    22 1   
    29    16    17 1   
    30    16    18 1   
    31    17    35 1   
    32    18    19 2   
    33    18    20 1   
    34    20    21 1   
    35    20    36 1   
    36    21    22 1   
    37    21    23 2   
    38    22    37 1   
@<TRIPOS>SUBSTRUCTURE
     1 RDL         1 TEMP              0 ****  ****    0 ROOT
