@<TRIPOS>MOLECULE
RDM
   30    30     1     0     0
SMALL
No Charge or Current Charge


@<TRIPOS>ATOM
      1 C4          50.3340     8.5170    48.1770 c3         1 RDM      -0.038100
      2 C5          51.4860     7.6020    48.5730 ca         1 RDM      -0.055300
      3 C6          52.2400     7.8690    49.7320 ca         1 RDM      -0.110500
      4 C7          53.3070     7.0270    50.0930 ca         1 RDM      -0.119000
      5 C8          53.6250     5.9150    49.2970 ca         1 RDM      -0.132000
      6 C9          52.8780     5.6450    48.1380 ca         1 RDM      -0.119000
      7 C10         51.8110     6.4860    47.7770 ca         1 RDM      -0.110500
      8 C11         49.0920    11.4530    47.9460 c          1 RDM       0.702000
      9 O2          48.0880    11.0510    48.5200 o          1 RDM      -0.718000
     10 O1          49.6030    12.5390    48.1790 o          1 RDM      -0.718000
     11 C2          49.6710    10.6130    46.7590 c3         1 RDM      -0.044300
     12 N           48.5850     9.9050    46.0310 ns         1 RDM      -0.464900
     13 C1          48.6270     9.4200    44.7420 c          1 RDM       0.617100
     14 O           47.7720     8.6360    44.3600 o          1 RDM      -0.669100
     15 C           49.7070     9.9560    43.7960 c3         1 RDM      -0.173100
     16 C3          50.7950     9.6490    47.2290 c3         1 RDM      -0.052400
     17 H1          49.8800     8.9530    49.0750 hc         1 RDM       0.058700
     18 H2          49.5450     7.9290    47.6910 hc         1 RDM       0.058700
     19 H3          52.0020     8.7300    50.3520 ha         1 RDM       0.118000
     20 H4          53.8860     7.2380    50.9890 ha         1 RDM       0.099000
     21 H5          54.4510     5.2630    49.5760 ha         1 RDM       0.096000
     22 H6          53.1250     4.7840    47.5200 ha         1 RDM       0.099000
     23 H7          51.2390     6.2720    46.8770 ha         1 RDM       0.118000
     24 H9          50.1210    11.3380    46.0700 h1         1 RDM       0.040700
     25 H10         47.7900     9.6000    46.5800 hn         1 RDM       0.290500
     26 H11         49.5950     9.5760    42.7750 hc         1 RDM       0.051700
     27 H12         49.6930    11.0510    43.8180 hc         1 RDM       0.051700
     28 H13         50.6990     9.7230    44.1960 hc         1 RDM       0.051700
     29 H14         51.2730     9.1950    46.3540 hc         1 RDM       0.036200
     30 H15         51.5730    10.2360    47.7310 hc         1 RDM       0.036200
@<TRIPOS>BOND
     1     1     2 1   
     2     1    16 1   
     3     1    17 1   
     4     1    18 1   
     5     2     3 ar  
     6     2     7 ar  
     7     3     4 ar  
     8     3    19 1   
     9     4     5 ar  
    10     4    20 1   
    11     5     6 ar  
    12     5    21 1   
    13     6     7 ar  
    14     6    22 1   
    15     7    23 1   
    16     8     9 1   
    17     8    10 1   
    18     8    11 1   
    19    11    12 1   
    20    11    16 1   
    21    11    24 1   
    22    12    13 1   
    23    12    25 1   
    24    13    14 2   
    25    13    15 1   
    26    15    26 1   
    27    15    27 1   
    28    15    28 1   
    29    16    29 1   
    30    16    30 1   
@<TRIPOS>SUBSTRUCTURE
     1 RDM         1 TEMP              0 ****  ****    0 ROOT
