@<TRIPOS>MOLECULE
RDM
   30    30     1     0     0
SMALL
bcc


@<TRIPOS>ATOM
      1 C4          50.4930     8.3630    48.1530 c3         1 RDM      -0.038100
      2 C5          51.5550     7.4980    48.7730 ca         1 RDM      -0.055300
      3 C6          52.3550     7.9830    49.8060 ca         1 RDM      -0.128500
      4 C7          53.3700     7.2060    50.3480 ca         1 RDM      -0.137000
      5 C8          53.6020     5.9250    49.8630 ca         1 RDM      -0.150000
      6 C9          52.8110     5.4300    48.8340 ca         1 RDM      -0.137000
      7 C10         51.7970     6.2120    48.2960 ca         1 RDM      -0.128500
      8 C11         49.3090    11.0930    47.3030 c          1 RDM       0.912600
      9 O2          48.0690    11.1260    47.2250 o          1 RDM      -0.823300
     10 O1          50.0440    11.7560    48.0600 o          1 RDM      -0.823300
     11 C2          50.0670    10.1410    46.3310 c3         1 RDM      -0.044300
     12 N           49.1890     9.3190    45.5230 ns         1 RDM      -0.531900
     13 C1          48.4310     9.7490    44.4950 c          1 RDM       0.684100
     14 O           47.5210     9.0670    44.0380 o          1 RDM      -0.669100
     15 C           48.7880    11.0900    43.9010 c3         1 RDM      -0.173100
     16 C3          51.0830     9.2620    47.0610 c3         1 RDM      -0.052400
     17 H1          50.0250     8.9820    48.9210 hc         1 RDM       0.058700
     18 H2          49.7070     7.7210    47.7450 hc         1 RDM       0.058700
     19 H3          52.1800     8.9810    50.1920 ha         1 RDM       0.136000
     20 H4          53.9780     7.6000    51.1530 ha         1 RDM       0.117000
     21 H5          54.3910     5.3160    50.2860 ha         1 RDM       0.114000
     22 H6          52.9810     4.4310    48.4520 ha         1 RDM       0.117000
     23 H7          51.1830     5.8160    47.4950 ha         1 RDM       0.136000
     24 H9          50.6450    10.7770    45.6530 h1         1 RDM       0.040700
     25 H10         48.8520     8.4690    45.9510 hn         1 RDM       0.290500
     26 H11         48.1910    11.2660    43.0100 hc         1 RDM       0.051700
     27 H12         48.5940    11.8910    44.6140 hc         1 RDM       0.051700
     28 H13         49.8430    11.1450    43.6300 hc         1 RDM       0.051700
     29 H14         51.6070     8.6430    46.3280 hc         1 RDM       0.036200
     30 H15         51.8330     9.9120    47.5130 hc         1 RDM       0.036200
@<TRIPOS>BOND
     1     1     2 1   
     2     1    16 1   
     3     1    17 1   
     4     1    18 1   
     5     2     3 ar  
     6     2     7 ar  
     7     3     4 ar  
     8     3    19 1   
     9     4     5 ar  
    10     4    20 1   
    11     5     6 ar  
    12     5    21 1   
    13     6     7 ar  
    14     6    22 1   
    15     7    23 1   
    16     8     9 1   
    17     8    10 1   
    18     8    11 1   
    19    11    12 1   
    20    11    16 1   
    21    11    24 1   
    22    12    13 1   
    23    12    25 1   
    24    13    14 2   
    25    13    15 1   
    26    15    26 1   
    27    15    27 1   
    28    15    28 1   
    29    16    29 1   
    30    16    30 1   
@<TRIPOS>SUBSTRUCTURE
     1 RDM         1 TEMP              0 ****  ****    0 ROOT
