@<TRIPOS>MOLECULE
RDN
   41    45     1     0     0
SMALL
No Charge or Current Charge


@<TRIPOS>ATOM
      1 C18        -43.1100   -28.7960     4.1150 cy         1 RDN      -0.078400
      2 N1         -46.3480   -29.1150     3.1220 nh         1 RDN      -0.750300
      3 C16        -42.5970   -28.8580     2.0680 cy         1 RDN      -0.078400
      4 C17        -42.3360   -27.8040     3.1910 cy         1 RDN      -0.099400
      5 C15        -43.9310   -29.1980     2.8270 cy         1 RDN      -0.063000
      6 C14        -45.2160   -28.3800     2.5180 c5         1 RDN       0.226800
      7 C13        -49.2530   -28.3880     1.1650 ca         1 RDN       0.181900
      8 C12        -50.0680   -28.8210     3.2400 ca         1 RDN       0.192500
      9 C11        -47.8420   -29.3600     6.1610 ca         1 RDN      -0.061000
     10 C10        -48.2510   -29.5800     7.4960 ca         1 RDN      -0.138000
     11 C9         -49.6270   -29.6570     7.8280 ca         1 RDN      -0.103000
     12 C8         -50.6130   -29.4990     6.8320 ca         1 RDN      -0.146000
     13 C7         -50.1730   -29.2920     5.5220 ca         1 RDN      -0.032200
     14 C6         -48.8310   -29.2450     5.1630 cp         1 RDN      -0.027000
     15 C5         -48.7670   -28.9820     3.7250 cp         1 RDN      -0.246000
     16 C4         -47.6970   -28.8580     2.8110 ca         1 RDN       0.439900
     17 C3         -45.8920   -30.4740     3.5080 c5         1 RDN       0.221800
     18 C2         -44.5980   -30.6070     2.6580 c5         1 RDN      -0.191700
     19 C1         -43.7510   -31.7980     3.1740 c          1 RDN       0.720000
     20 O1         -43.3800   -32.6330     2.3630 o          1 RDN      -0.728000
     21 N2         -50.8940   -29.0430     4.3490 na         1 RDN      -0.341300
     22 N3         -50.3380   -28.5220     1.9610 nb         1 RDN      -0.283000
     23 N4         -47.9570   -28.5470     1.5210 nb         1 RDN      -0.312000
     24 H16        -43.6870   -28.3430     4.9290 hc         1 RDN       0.060700
     25 H17        -42.4730   -29.5780     4.5420 hc         1 RDN       0.060700
     26 H12        -41.8680   -29.6770     2.0350 hc         1 RDN       0.060700
     27 H13        -42.7110   -28.4590     1.0540 hc         1 RDN       0.060700
     28 H14        -41.2860   -27.6290     3.4480 hc         1 RDN       0.030200
     29 H15        -42.8260   -26.8350     3.0380 hc         1 RDN       0.030200
     30 H11        -45.3570   -28.2820     1.4320 h1         1 RDN       0.047200
     31 H10        -45.1660   -27.3570     2.9160 h1         1 RDN       0.047200
     32 H6         -47.5020   -29.6780     8.2780 ha         1 RDN       0.114000
     33 H5         -49.9240   -29.8200     8.8620 ha         1 RDN       0.101000
     34 H4         -51.6720   -29.5270     7.0760 ha         1 RDN       0.104000
     35 H2         -46.6250   -31.2530     3.2550 h1         1 RDN       0.064200
     36 H3         -45.6810   -30.5390     4.5830 h1         1 RDN       0.064200
     37 H1         -44.8230   -30.7840     1.5990 hc         1 RDN       0.049700
     38 H8         -51.9050   -29.0120     4.3000 hn         1 RDN       0.353000
     39 O2         -43.5060   -31.9150     4.3660 o          1 RDN      -0.728000
     40 H9         -49.4440   -28.1390     0.1230 h5         1 RDN       0.030100
     41 H7         -46.7890   -29.2580     5.9200 ha         1 RDN       0.142000
@<TRIPOS>BOND
     1     1     4 1   
     2     1     5 1   
     3     1    24 1   
     4     1    25 1   
     5     2     6 1   
     6     2    16 1   
     7     2    17 1   
     8     3     4 1   
     9     3     5 1   
    10     3    26 1   
    11     3    27 1   
    12     4    28 1   
    13     4    29 1   
    14     5     6 1   
    15     5    18 1   
    16     6    30 1   
    17     6    31 1   
    18     7    22 ar  
    19     7    23 ar  
    20     7    40 1   
    21     8    15 ar  
    22     8    21 1   
    23     8    22 ar  
    24     9    10 ar  
    25     9    14 ar  
    26     9    41 1   
    27    10    11 ar  
    28    10    32 1   
    29    11    12 ar  
    30    11    33 1   
    31    12    13 ar  
    32    12    34 1   
    33    13    14 ar  
    34    13    21 1   
    35    14    15 1   
    36    15    16 ar  
    37    16    23 ar  
    38    17    18 1   
    39    17    35 1   
    40    17    36 1   
    41    18    19 1   
    42    18    37 1   
    43    19    20 1   
    44    19    39 1   
    45    21    38 1   
@<TRIPOS>SUBSTRUCTURE
     1 RDN         1 TEMP              0 ****  ****    0 ROOT
