@<TRIPOS>MOLECULE
RDN
   41    45     1     0     0
SMALL
abcg2


@<TRIPOS>ATOM
      1 C18        -43.0640   -28.3840     3.6050 cy         1 RDN      -0.078400
      2 N1         -46.2330   -28.9160     3.1750 nh         1 RDN      -0.750300
      3 C16        -42.7970   -29.2960     1.6580 cy         1 RDN      -0.078400
      4 C17        -42.1520   -28.0910     2.3890 cy         1 RDN      -0.099400
      5 C15        -43.9530   -29.2680     2.6810 cy         1 RDN      -0.063000
      6 C14        -45.2050   -28.5460     2.1910 c5         1 RDN       0.226800
      7 C13        -49.0340   -27.5030     1.5990 ca         1 RDN       0.181900
      8 C12        -49.8740   -28.5120     3.3890 ca         1 RDN       0.192500
      9 C11        -48.0280   -29.8790     6.2710 ca         1 RDN      -0.061000
     10 C10        -48.6280   -30.3520     7.4310 ca         1 RDN      -0.138000
     11 C9         -50.0210   -30.3950     7.5640 ca         1 RDN      -0.103000
     12 C8         -50.8420   -29.9430     6.5410 ca         1 RDN      -0.146000
     13 C7         -50.2340   -29.4640     5.3860 ca         1 RDN      -0.032200
     14 C6         -48.8230   -29.4440     5.2040 cp         1 RDN      -0.027000
     15 C5         -48.5950   -28.8630     3.8860 cp         1 RDN      -0.246000
     16 C4         -47.5170   -28.5420     3.0140 ca         1 RDN       0.439900
     17 C3         -45.7810   -30.0580     3.9830 c5         1 RDN       0.221800
     18 C2         -44.5460   -30.5680     3.2480 c5         1 RDN      -0.191700
     19 C1         -43.5690   -31.3950     4.1020 c          1 RDN       0.720000
     20 O1         -42.7860   -32.1490     3.4670 o          1 RDN      -0.728000
     21 N2         -50.8340   -28.9130     4.2710 na         1 RDN      -0.341300
     22 N3         -50.1380   -27.8510     2.2560 nb         1 RDN      -0.283000
     23 N4         -47.7780   -27.8020     1.9040 nb         1 RDN      -0.312000
     24 H16        -43.5530   -27.5360     4.0880 hc         1 RDN       0.060700
     25 H17        -42.5580   -28.9790     4.3640 hc         1 RDN       0.060700
     26 H12        -42.2070   -30.2050     1.7670 hc         1 RDN       0.060700
     27 H13        -43.0690   -29.1660     0.6090 hc         1 RDN       0.060700
     28 H14        -41.0760   -28.1310     2.5580 hc         1 RDN       0.030200
     29 H15        -42.3960   -27.1420     1.9100 hc         1 RDN       0.030200
     30 H11        -45.4900   -28.9020     1.1960 h1         1 RDN       0.047200
     31 H10        -45.0880   -27.4640     2.1380 h1         1 RDN       0.047200
     32 H6         -48.0040   -30.6870     8.2490 ha         1 RDN       0.114000
     33 H5         -50.4630   -30.7710     8.4780 ha         1 RDN       0.101000
     34 H4         -51.9200   -29.9470     6.6370 ha         1 RDN       0.104000
     35 H2         -46.5690   -30.8050     4.0620 h1         1 RDN       0.064200
     36 H3         -45.4880   -29.7420     4.9820 h1         1 RDN       0.064200
     37 H1         -44.8520   -31.1860     2.3990 hc         1 RDN       0.049700
     38 H8         -51.8200   -28.7380     4.1570 hn         1 RDN       0.353000
     39 O2         -43.6030   -31.2500     5.3510 o          1 RDN      -0.728000
     40 H9         -49.1760   -26.9150     0.6980 h5         1 RDN       0.030100
     41 H7         -46.9530   -29.8430     6.2180 ha         1 RDN       0.142000
@<TRIPOS>BOND
     1     1     4 1   
     2     1     5 1   
     3     1    24 1   
     4     1    25 1   
     5     2     6 1   
     6     2    16 1   
     7     2    17 1   
     8     3     4 1   
     9     3     5 1   
    10     3    26 1   
    11     3    27 1   
    12     4    28 1   
    13     4    29 1   
    14     5     6 1   
    15     5    18 1   
    16     6    30 1   
    17     6    31 1   
    18     7    22 ar  
    19     7    23 ar  
    20     7    40 1   
    21     8    15 ar  
    22     8    21 1   
    23     8    22 ar  
    24     9    10 ar  
    25     9    14 ar  
    26     9    41 1   
    27    10    11 ar  
    28    10    32 1   
    29    11    12 ar  
    30    11    33 1   
    31    12    13 ar  
    32    12    34 1   
    33    13    14 ar  
    34    13    21 1   
    35    14    15 1   
    36    15    16 ar  
    37    16    23 ar  
    38    17    18 1   
    39    17    35 1   
    40    17    36 1   
    41    18    19 1   
    42    18    37 1   
    43    19    20 1   
    44    19    39 1   
    45    21    38 1   
@<TRIPOS>SUBSTRUCTURE
     1 RDN         1 TEMP              0 ****  ****    0 ROOT
