@<TRIPOS>MOLECULE
RDQ
   57    60     1     0     0
SMALL
No Charge or Current Charge


@<TRIPOS>ATOM
      1 N1         -22.1330     6.8660    29.5830 n          1 RDQ      -0.423800
      2 N3         -16.8760     4.3170    26.3470 nb         1 RDQ      -0.660000
      3 C4         -22.3620     4.5240    28.6340 c6         1 RDQ      -0.114400
      4 C5         -21.0690     4.2680    27.8240 c          1 RDQ       0.604100
      5 C6         -18.9820     5.4220    26.9050 ca         1 RDQ      -0.111000
      6 C7         -18.1020     4.3110    26.9180 ca         1 RDQ       0.355900
      7 C8         -16.4740     5.4500    25.7320 ca         1 RDQ       0.382900
      8 C10        -16.7930     7.7630    25.0200 ca         1 RDQ      -0.039000
      9 C13        -18.0530    11.9610    26.6540 c3         1 RDQ      -0.388100
     10 C15        -18.5430     6.6050    26.2670 ca         1 RDQ       0.029000
     11 C17        -22.2210     2.6290    30.3240 ca         1 RDQ      -0.103000
     12 C20        -21.5460     4.4000    32.3920 ca         1 RDQ      -0.042000
     13 C21        -21.7990     4.9070    31.0980 ca         1 RDQ      -0.125600
     14 C22        -21.7150     6.3920    30.8450 c          1 RDQ       0.576600
     15 O4         -21.2590     7.1580    31.6820 o          1 RDQ      -0.535000
     16 C2         -22.2270     8.3430    29.3330 c3         1 RDQ       0.020000
     17 C1         -20.9180     9.0830    28.9920 c          1 RDQ       0.578100
     18 O          -20.8760     9.9760    28.1570 o          1 RDQ      -0.646100
     19 N          -19.7850     8.6390    29.6310 ns         1 RDQ      -0.486900
     20 C          -18.4430     9.1890    29.4300 c3         1 RDQ       0.089300
     21 C19        -21.6350     3.0210    32.6480 ca         1 RDQ      -0.104000
     22 C18        -21.9740     2.1380    31.6150 ca         1 RDQ       0.145000
     23 Cl         -22.0830     0.4120    31.9330 cl         1 RDQ      -0.194000
     24 C16        -22.1340     4.0100    30.0580 ca         1 RDQ      -0.039300
     25 C3         -22.8710     5.9850    28.6500 c6         1 RDQ       0.119000
     26 O1         -20.8080     3.1400    27.4230 o          1 RDQ      -0.584100
     27 N2         -20.2590     5.3620    27.5430 ns         1 RDQ      -0.163000
     28 C9         -17.2660     6.6110    25.6710 ca         1 RDQ      -0.126000
     29 C14        -19.3380     7.7680    26.1970 ca         1 RDQ      -0.170000
     30 C12        -18.8610     8.9340    25.5760 ca         1 RDQ       0.342000
     31 C11        -17.5890     8.9200    24.9740 ca         1 RDQ      -0.156000
     32 N4         -19.6840    10.0540    25.6020 nu         1 RDQ      -0.914100
     33 S          -19.2790    11.6470    25.4080 s6         1 RDQ       1.245100
     34 O2         -18.6760    11.7710    24.0800 o          1 RDQ      -0.534000
     35 O3         -20.4940    12.3890    25.7430 o          1 RDQ      -0.534000
     36 H1         -23.1300     3.8870    28.1750 hc         1 RDQ       0.077700
     37 H2         -18.3650     3.3860    27.4260 h4         1 RDQ       0.028100
     38 H3         -15.4840     5.4260    25.2790 h4         1 RDQ       0.025100
     39 H4         -15.8100     7.7670    24.5530 ha         1 RDQ       0.127000
     40 H5         -18.5130    11.7490    27.6240 h1         1 RDQ       0.115033
     41 H6         -17.2000    11.3040    26.4610 h1         1 RDQ       0.115033
     42 H7         -17.7710    13.0140    26.5700 h1         1 RDQ       0.115033
     43 H8         -22.4720     1.9320    29.5290 ha         1 RDQ       0.131000
     44 H9         -21.2850     5.0740    33.2070 ha         1 RDQ       0.147000
     45 H10        -22.6370     8.8260    30.2290 h1         1 RDQ       0.084200
     46 H11        -22.9300     8.5360    28.5140 h1         1 RDQ       0.084200
     47 H12        -19.9250     7.9360    30.3510 hn         1 RDQ       0.349500
     48 H13        -17.7320     8.6660    30.0830 h1         1 RDQ       0.042700
     49 H14        -18.1370     9.0560    28.3850 h1         1 RDQ       0.042700
     50 H15        -18.4420    10.2580    29.6780 h1         1 RDQ       0.042700
     51 H16        -21.4410     2.6380    33.6470 ha         1 RDQ       0.140000
     52 H17        -22.8440     6.4000    27.6320 h1         1 RDQ       0.056200
     53 H18        -23.9260     5.9810    28.9620 h1         1 RDQ       0.056200
     54 H19        -20.6080     6.2500    27.8830 hn         1 RDQ       0.161000
     55 H20        -20.3340     7.7750    26.6240 ha         1 RDQ       0.115000
     56 H21        -17.1970     9.7930    24.4660 ha         1 RDQ       0.149000
     57 H22        -20.3160    10.0880    26.4030 hn         1 RDQ       0.505000
@<TRIPOS>BOND
     1     1    14 1   
     2     1    16 1   
     3     1    25 1   
     4     2     6 ar  
     5     2     7 ar  
     6     3     4 1   
     7     3    24 1   
     8     3    25 1   
     9     3    36 1   
    10     4    26 2   
    11     4    27 1   
    12     5     6 ar  
    13     5    10 ar  
    14     5    27 1   
    15     6    37 1   
    16     7    28 ar  
    17     7    38 1   
    18     8    28 ar  
    19     8    31 ar  
    20     8    39 1   
    21     9    33 1   
    22     9    40 1   
    23     9    41 1   
    24     9    42 1   
    25    10    28 ar  
    26    10    29 ar  
    27    11    22 ar  
    28    11    24 ar  
    29    11    43 1   
    30    12    13 ar  
    31    12    21 ar  
    32    12    44 1   
    33    13    14 1   
    34    13    24 ar  
    35    14    15 2   
    36    16    17 1   
    37    16    45 1   
    38    16    46 1   
    39    17    18 2   
    40    17    19 1   
    41    19    20 1   
    42    19    47 1   
    43    20    48 1   
    44    20    49 1   
    45    20    50 1   
    46    21    22 ar  
    47    21    51 1   
    48    22    23 1   
    49    25    52 1   
    50    25    53 1   
    51    27    54 1   
    52    29    30 ar  
    53    29    55 1   
    54    30    31 ar  
    55    30    32 1   
    56    31    56 1   
    57    32    33 1   
    58    32    57 1   
    59    33    34 2   
    60    33    35 2   
@<TRIPOS>SUBSTRUCTURE
     1 RDQ         1 TEMP              0 ****  ****    0 ROOT
