@<TRIPOS>MOLECULE
RDQ
   57    60     1     0     0
SMALL
abcg2


@<TRIPOS>ATOM
      1 N1         -22.1040     7.0890    29.7690 n          1 RDQ      -0.423800
      2 N3         -16.8320     4.2180    25.7080 nb         1 RDQ      -0.660000
      3 C4         -21.9190     4.8620    28.7160 c6         1 RDQ      -0.114400
      4 C5         -20.4590     5.0250    28.2910 c          1 RDQ       0.604100
      5 C6         -18.9570     5.1270    26.3810 ca         1 RDQ      -0.111000
      6 C7         -18.0710     4.0900    26.2460 ca         1 RDQ       0.355900
      7 C8         -16.4690     5.4140    25.2990 ca         1 RDQ       0.382900
      8 C10        -16.8620     7.8310    24.9390 ca         1 RDQ      -0.039000
      9 C13        -18.4020    11.7270    27.1610 c3         1 RDQ      -0.388100
     10 C15        -18.5900     6.4280    25.9470 ca         1 RDQ       0.029000
     11 C17        -22.0790     2.9000    30.2900 ca         1 RDQ      -0.103000
     12 C20        -22.0980     4.6070    32.4880 ca         1 RDQ      -0.042000
     13 C21        -22.0290     5.1340    31.1990 ca         1 RDQ      -0.125600
     14 C22        -21.9140     6.6110    31.0270 c          1 RDQ       0.576600
     15 O4         -21.6350     7.3540    31.9690 o          1 RDQ      -0.535000
     16 C2         -22.0350     8.5210    29.5480 c3         1 RDQ       0.020000
     17 C1         -20.6360     9.1180    29.3940 c          1 RDQ       0.578100
     18 O          -20.5300    10.3420    29.2660 o          1 RDQ      -0.646100
     19 N          -19.6010     8.2770    29.4080 ns         1 RDQ      -0.486900
     20 C          -18.2230     8.7110    29.2750 c3         1 RDQ       0.089300
     21 C19        -22.1640     3.2380    32.6900 ca         1 RDQ      -0.104000
     22 C18        -22.1520     2.3980    31.5810 ca         1 RDQ       0.145000
     23 CL         -22.2310     0.6700    31.8190 cl         1 RDQ      -0.194000
     24 C16        -22.0230     4.2750    30.0960 ca         1 RDQ      -0.039300
     25 C3         -22.6100     6.2290    28.6980 c6         1 RDQ       0.119000
     26 O1         -19.5740     5.3200    29.0910 o          1 RDQ      -0.584100
     27 N2         -20.2330     4.8890    26.9680 ns         1 RDQ      -0.163000
     28 C9         -17.2880     6.5610    25.3860 ca         1 RDQ      -0.126000
     29 C14        -19.4160     7.5610    26.0500 ca         1 RDQ      -0.170000
     30 C12        -18.9710     8.7910    25.6080 ca         1 RDQ       0.342000
     31 C11        -17.6790     8.9230    25.0380 ca         1 RDQ      -0.156000
     32 N4         -19.8410     9.8880    25.7220 nu         1 RDQ      -0.914100
     33 S          -19.4390    11.4960    25.7480 s6         1 RDQ       1.245100
     34 O2         -18.6810    11.7970    24.5580 o          1 RDQ      -0.534000
     35 O3         -20.6920    12.1740    25.9690 o          1 RDQ      -0.534000
     36 H1         -22.4300     4.2190    27.9980 hc         1 RDQ       0.077700
     37 H2         -18.3560     3.1000    26.5840 h4         1 RDQ       0.028100
     38 H3         -15.4760     5.5130    24.8720 h4         1 RDQ       0.025100
     39 H4         -15.8740     7.9320    24.5080 ha         1 RDQ       0.127000
     40 H5         -18.9620    11.4040    28.0380 h1         1 RDQ       0.115033
     41 H6         -17.4940    11.1410    27.0310 h1         1 RDQ       0.115033
     42 H7         -18.1660    12.7900    27.2000 h1         1 RDQ       0.115033
     43 H8         -22.0670     2.2280    29.4420 ha         1 RDQ       0.131000
     44 H9         -22.0960     5.2800    33.3340 ha         1 RDQ       0.147000
     45 H10        -22.5080     9.0510    30.3740 h1         1 RDQ       0.084200
     46 H11        -22.5860     8.7620    28.6400 h1         1 RDQ       0.084200
     47 H12        -19.7710     7.2810    29.4580 hn         1 RDQ       0.349500
     48 H13        -17.5780     7.9630    29.7300 h1         1 RDQ       0.042700
     49 H14        -17.9400     8.8260    28.2270 h1         1 RDQ       0.042700
     50 H15        -18.0840     9.6640    29.7810 h1         1 RDQ       0.042700
     51 H16        -22.2220     2.8250    33.6870 ha         1 RDQ       0.140000
     52 H17        -22.4360     6.7310    27.7490 h1         1 RDQ       0.056200
     53 H18        -23.6880     6.0810    28.8080 h1         1 RDQ       0.056200
     54 H19        -21.0080     4.6530    26.3630 hn         1 RDQ       0.161000
     55 H20        -20.4000     7.4730    26.4890 ha         1 RDQ       0.115000
     56 H21        -17.3440     9.8840    24.6790 ha         1 RDQ       0.149000
     57 H22        -20.6990     9.7140    26.2330 hn         1 RDQ       0.505000
@<TRIPOS>BOND
     1     1    14 1   
     2     1    16 1   
     3     1    25 1   
     4     2     6 ar  
     5     2     7 ar  
     6     3     4 1   
     7     3    24 1   
     8     3    25 1   
     9     3    36 1   
    10     4    26 2   
    11     4    27 1   
    12     5     6 ar  
    13     5    10 ar  
    14     5    27 1   
    15     6    37 1   
    16     7    28 ar  
    17     7    38 1   
    18     8    28 ar  
    19     8    31 ar  
    20     8    39 1   
    21     9    33 1   
    22     9    40 1   
    23     9    41 1   
    24     9    42 1   
    25    10    28 ar  
    26    10    29 ar  
    27    11    22 ar  
    28    11    24 ar  
    29    11    43 1   
    30    12    13 ar  
    31    12    21 ar  
    32    12    44 1   
    33    13    14 1   
    34    13    24 ar  
    35    14    15 2   
    36    16    17 1   
    37    16    45 1   
    38    16    46 1   
    39    17    18 2   
    40    17    19 1   
    41    19    20 1   
    42    19    47 1   
    43    20    48 1   
    44    20    49 1   
    45    20    50 1   
    46    21    22 ar  
    47    21    51 1   
    48    22    23 1   
    49    25    52 1   
    50    25    53 1   
    51    27    54 1   
    52    29    30 ar  
    53    29    55 1   
    54    30    31 ar  
    55    30    32 1   
    56    31    56 1   
    57    32    33 1   
    58    32    57 1   
    59    33    34 2   
    60    33    35 2   
@<TRIPOS>SUBSTRUCTURE
     1 RDQ         1 TEMP              0 ****  ****    0 ROOT
