@<TRIPOS>MOLECULE
RDS
   36    37     1     0     0
SMALL
No Charge or Current Charge


@<TRIPOS>ATOM
      1 Cl          -6.1880     0.4450    -0.0120 cl         1 RDS      -0.203000
      2 C13         -4.4790     0.7070    -0.3370 ca         1 RDS       0.104000
      3 C12         -3.5310     0.4940     0.6790 ca         1 RDS      -0.049000
      4 C8          -2.1630     0.6990     0.4200 ca         1 RDS      -0.124000
      5 C9          -1.7480     1.1260    -0.8570 ca         1 RDS      -0.049000
      6 C10         -2.6980     1.3380    -1.8720 ca         1 RDS      -0.118000
      7 C11         -4.0640     1.1270    -1.6120 ca         1 RDS      -0.080000
      8 S           -0.9640     0.4260     1.7220 ss         1 RDS      -0.104300
      9 C7           0.2030    -0.6210     0.8620 ca         1 RDS       0.306300
     10 N1           1.4690    -0.1690     0.7710 nb         1 RDS      -0.298000
     11 C2           2.3510    -0.9470     0.1110 ca         1 RDS       0.401300
     12 C1           1.9620    -2.1740    -0.4310 ca         1 RDS      -0.349000
     13 C            0.6340    -2.5460    -0.2750 ca         1 RDS       0.416900
     14 N            0.1710    -3.7160    -0.7710 nv         1 RDS      -1.081900
     15 N2          -0.2580    -1.7860     0.3640 nb         1 RDS      -0.289000
     16 O            3.6700    -0.5790    -0.0260 os         1 RDS      -0.466300
     17 C3           4.1340     0.7490     0.2970 c3         1 RDS       0.187300
     18 C4           3.6890     1.7030    -0.8360 c3         1 RDS      -0.116100
     19 C5           5.6740     0.6810     0.4300 c3         1 RDS      -0.078400
     20 C6           6.1610    -0.2100     1.5930 c3         1 RDS      -0.087100
     21 H1          -3.8590     0.1690     1.6630 ha         1 RDS       0.141000
     22 H2          -0.6930     1.2970    -1.0640 ha         1 RDS       0.128000
     23 H3          -2.3760     1.6660    -2.8570 ha         1 RDS       0.119000
     24 H4          -4.8000     1.2910    -2.3960 ha         1 RDS       0.129000
     25 H5           2.6760    -2.8040    -0.9500 ha         1 RDS       0.141000
     26 H6           0.7340    -4.2120    -1.4590 hn         1 RDS       0.498500
     27 H7          -0.8350    -3.8560    -0.8210 hn         1 RDS       0.498500
     28 H8           3.7200     1.0970     1.2540 h1         1 RDS       0.069700
     29 H9           4.0630     1.3550    -1.8070 hc         1 RDS       0.048033
     30 H10          2.5970     1.7720    -0.8900 hc         1 RDS       0.048033
     31 H11          4.0800     2.7120    -0.6600 hc         1 RDS       0.048033
     32 H12          6.1070     0.3150    -0.5100 hc         1 RDS       0.048700
     33 H13          6.0630     1.6950     0.5820 hc         1 RDS       0.048700
     34 H14          5.7550     0.1440     2.5490 hc         1 RDS       0.036367
     35 H15          5.8500    -1.2510     1.4490 hc         1 RDS       0.036367
     36 H16          7.2560    -0.1880     1.6570 hc         1 RDS       0.036367
@<TRIPOS>BOND
     1     1     2 1   
     2     2     3 ar  
     3     2     7 ar  
     4     3     4 ar  
     5     3    21 1   
     6     4     5 ar  
     7     4     8 1   
     8     5     6 ar  
     9     5    22 1   
    10     6     7 ar  
    11     6    23 1   
    12     7    24 1   
    13     8     9 1   
    14     9    10 ar  
    15     9    15 ar  
    16    10    11 ar  
    17    11    12 ar  
    18    11    16 1   
    19    12    13 ar  
    20    12    25 1   
    21    13    14 1   
    22    13    15 ar  
    23    14    26 1   
    24    14    27 1   
    25    16    17 1   
    26    17    18 1   
    27    17    19 1   
    28    17    28 1   
    29    18    29 1   
    30    18    30 1   
    31    18    31 1   
    32    19    20 1   
    33    19    32 1   
    34    19    33 1   
    35    20    34 1   
    36    20    35 1   
    37    20    36 1   
@<TRIPOS>SUBSTRUCTURE
     1 RDS         1 TEMP              0 ****  ****    0 ROOT
