@<TRIPOS>MOLECULE
RDS
   36    37     1     0     0
SMALL
bcc


@<TRIPOS>ATOM
      1 CL          -5.5280    -0.0480     1.6430 cl         1 RDS      -0.111400
      2 C13         -4.3710     0.3730     0.4230 ca         1 RDS       0.012400
      3 C12         -3.0780     0.7000     0.8040 ca         1 RDS      -0.067000
      4 C8          -2.1560     1.0380    -0.1770 ca         1 RDS       0.002900
      5 C9          -2.5230     1.0510    -1.5180 ca         1 RDS      -0.067000
      6 C10         -3.8170     0.7100    -1.8770 ca         1 RDS      -0.136000
      7 C11         -4.7530     0.3710    -0.9080 ca         1 RDS      -0.098000
      8 S           -0.5300     1.5370     0.3090 ss         1 RDS      -0.231200
      9 C7           0.4540     0.1310    -0.1250 ca         1 RDS       0.832300
     10 N1           1.7420     0.3480     0.0820 nb         1 RDS      -0.824000
     11 C2           2.5470    -0.6580    -0.2430 ca         1 RDS       0.729600
     12 C1           2.0770    -1.8570    -0.7570 ca         1 RDS      -0.497600
     13 C            0.6920    -1.9630    -0.9150 ca         1 RDS       0.745200
     14 N            0.1090    -3.0740    -1.3820 nv         1 RDS      -0.971500
     15 N2          -0.1270    -0.9430    -0.5920 nb         1 RDS      -0.815000
     16 O            3.8540    -0.5320    -0.0800 os         1 RDS      -0.443100
     17 C3           4.4170     0.6900     0.4360 c3         1 RDS       0.164100
     18 C4           4.4890     1.7400    -0.6580 c3         1 RDS      -0.116100
     19 C5           5.7880     0.3270     0.9800 c3         1 RDS      -0.078400
     20 C6           5.7570    -0.6890     2.1140 c3         1 RDS      -0.087100
     21 H1          -2.7910     0.6910     1.8470 ha         1 RDS       0.159000
     22 H2          -1.8000     1.3250    -2.2750 ha         1 RDS       0.146000
     23 H3          -4.1070     0.7130    -2.9190 ha         1 RDS       0.137000
     24 H4          -5.7640     0.1110    -1.1900 ha         1 RDS       0.147000
     25 H5           2.7460    -2.6650    -1.0180 ha         1 RDS       0.159000
     26 H6           0.6520    -3.8540    -1.7050 hn         1 RDS       0.443300
     27 H7          -0.8830    -3.0910    -1.5380 hn         1 RDS       0.443300
     28 H8           3.7900     1.0520     1.2560 h1         1 RDS       0.069700
     29 H9           5.0920     1.3890    -1.4970 hc         1 RDS       0.048033
     30 H10          3.4990     2.0060    -1.0260 hc         1 RDS       0.048033
     31 H11          4.9530     2.6470    -0.2690 hc         1 RDS       0.048033
     32 H12          6.4210    -0.0340     0.1630 hc         1 RDS       0.048700
     33 H13          6.2480     1.2530     1.3340 hc         1 RDS       0.048700
     34 H14          5.1440    -0.3330     2.9450 hc         1 RDS       0.036367
     35 H15          5.3560    -1.6490     1.7900 hc         1 RDS       0.036367
     36 H16          6.7610    -0.8650     2.5010 hc         1 RDS       0.036367
@<TRIPOS>BOND
     1     1     2 1   
     2     2     3 ar  
     3     2     7 ar  
     4     3     4 ar  
     5     3    21 1   
     6     4     5 ar  
     7     4     8 1   
     8     5     6 ar  
     9     5    22 1   
    10     6     7 ar  
    11     6    23 1   
    12     7    24 1   
    13     8     9 1   
    14     9    10 ar  
    15     9    15 ar  
    16    10    11 ar  
    17    11    12 ar  
    18    11    16 1   
    19    12    13 ar  
    20    12    25 1   
    21    13    14 1   
    22    13    15 ar  
    23    14    26 1   
    24    14    27 1   
    25    16    17 1   
    26    17    18 1   
    27    17    19 1   
    28    17    28 1   
    29    18    29 1   
    30    18    30 1   
    31    18    31 1   
    32    19    20 1   
    33    19    32 1   
    34    19    33 1   
    35    20    34 1   
    36    20    35 1   
    37    20    36 1   
@<TRIPOS>SUBSTRUCTURE
     1 RDS         1 TEMP              0 ****  ****    0 ROOT
