@<TRIPOS>MOLECULE
RDT
   37    38     1     0     0
SMALL
No Charge or Current Charge


@<TRIPOS>ATOM
      1 CAA         16.3020    -3.4800     6.9380 c3         1 RDT       0.149900
      2 CAB         14.7470    -6.1710     9.5880 c3         1 RDT       0.144900
      3 CAC         12.9640    -3.0710    13.4300 c3         1 RDT      -0.089100
      4 NAD         11.2590    -0.7450    14.9160 n8         1 RDT      -1.016100
      5 OAE          9.4700     0.0590    13.4540 o          1 RDT      -0.558500
      6 OAF          9.7890    -2.4610    13.8220 o          1 RDT      -0.558500
      7 CAG         14.2370    -1.2900     9.1420 ca         1 RDT      -0.084000
      8 CAH         13.6450    -3.6580    10.5040 ca         1 RDT      -0.175000
      9 CAI         12.7510     0.0470    10.6960 c6         1 RDT      -0.023100
     10 CAJ         11.4280    -0.2100    11.4360 c6         1 RDT       0.208800
     11 OAK         15.6170    -2.3800     7.5650 os         1 RDT      -0.354100
     12 OAL         15.0120    -4.9160     8.9340 os         1 RDT      -0.336100
     13 CAM         13.3940    -1.2600    10.2650 ca         1 RDT      -0.097300
     14 CAN         14.8010    -2.4920     8.6850 ca         1 RDT       0.078100
     15 CAO         14.4930    -3.7060     9.3710 ca         1 RDT       0.120100
     16 CAP         13.1120    -2.4390    10.9790 ca         1 RDT      -0.065300
     17 CAQ         12.1960    -2.4190    12.2380 c6         1 RDT       0.293800
     18 NAR         11.6490    -1.0690    12.6270 n3         1 RDT      -0.822500
     19 SAS         10.3150    -1.1060    13.6820 s6         1 RDT       1.300200
     20 HAA         16.8890    -3.1210     6.0830 h1         1 RDT       0.038700
     21 HAAA        16.9940    -3.9630     7.6400 h1         1 RDT       0.038700
     22 HAAB        15.5890    -4.2250     6.5640 h1         1 RDT       0.038700
     23 HAB         15.2670    -6.9850     9.0700 h1         1 RDT       0.044367
     24 HABA        15.0970    -6.1510    10.6280 h1         1 RDT       0.044367
     25 HABB        13.6730    -6.3960     9.5800 h1         1 RDT       0.044367
     26 HAC         12.3320    -3.2030    14.3130 hc         1 RDT       0.046700
     27 HACA        13.3450    -4.0670    13.1840 hc         1 RDT       0.046700
     28 HACB        13.8230    -2.4540    13.7210 hc         1 RDT       0.046700
     29 HNAD        12.0900    -0.6380    14.3370 hn         1 RDT       0.477500
     30 HNAA        10.9540     0.2090    15.0720 hn         1 RDT       0.477500
     31 HAG         14.4530    -0.3690     8.6070 ha         1 RDT       0.128000
     32 HAH         13.3820    -4.5720    11.0260 ha         1 RDT       0.123000
     33 HAI         12.5600     0.6860     9.8240 hc         1 RDT       0.059200
     34 HAIA        13.4380     0.5990    11.3500 hc         1 RDT       0.059200
     35 HAJ         11.0290     0.7740    11.7210 h1         1 RDT       0.047700
     36 HAJA        10.7030    -0.6720    10.7500 h1         1 RDT       0.047700
     37 HAQ         11.3600    -3.0900    11.9850 h1         1 RDT       0.071700
@<TRIPOS>BOND
     1     1    11 1   
     2     1    20 1   
     3     1    21 1   
     4     1    22 1   
     5     2    12 1   
     6     2    23 1   
     7     2    24 1   
     8     2    25 1   
     9     3    17 1   
    10     3    26 1   
    11     3    27 1   
    12     3    28 1   
    13     4    19 1   
    14     4    29 1   
    15     4    30 1   
    16     5    19 2   
    17     6    19 2   
    18     7    13 ar  
    19     7    14 ar  
    20     7    31 1   
    21     8    15 ar  
    22     8    16 ar  
    23     8    32 1   
    24     9    10 1   
    25     9    13 1   
    26     9    33 1   
    27     9    34 1   
    28    10    18 1   
    29    10    35 1   
    30    10    36 1   
    31    11    14 1   
    32    12    15 1   
    33    13    16 ar  
    34    14    15 ar  
    35    16    17 1   
    36    17    18 1   
    37    17    37 1   
    38    18    19 1   
@<TRIPOS>SUBSTRUCTURE
     1 RDT         1 TEMP              0 ****  ****    0 ROOT
