@<TRIPOS>MOLECULE
RDT
   37    38     1     0     0
SMALL
abcg2


@<TRIPOS>ATOM
      1 CAA         16.3520    -3.1540     7.2280 c3         1 RDT       0.149900
      2 CAB         13.9190    -6.2920     9.1400 c3         1 RDT       0.144900
      3 CAC         13.7320    -2.6290    13.5130 c3         1 RDT      -0.089100
      4 NAD         10.1210    -0.1910    14.3050 n8         1 RDT      -1.016100
      5 OAE          9.2780    -1.4890    12.4050 o          1 RDT      -0.558500
      6 OAF         10.4630    -2.6550    14.2470 o          1 RDT      -0.558500
      7 CAG         14.2080    -1.4970     9.1630 ca         1 RDT      -0.084000
      8 CAH         13.4440    -3.8340    10.4400 ca         1 RDT      -0.175000
      9 CAI         13.2910    -0.1240    11.1000 c6         1 RDT      -0.023100
     10 CAJ         11.8920    -0.2070    11.6950 c6         1 RDT       0.208800
     11 OAK         14.9760    -2.7470     7.2830 os         1 RDT      -0.354100
     12 OAL         14.2820    -5.0630     8.5130 os         1 RDT      -0.336100
     13 CAM         13.6090    -1.4230    10.4190 ca         1 RDT      -0.097300
     14 CAN         14.4360    -2.7160     8.5480 ca         1 RDT       0.078100
     15 CAO         14.0500    -3.9080     9.1890 ca         1 RDT       0.120100
     16 CAP         13.2270    -2.6000    11.0530 ca         1 RDT      -0.065300
     17 CAQ         12.6380    -2.5540    12.4430 c6         1 RDT       0.293800
     18 NAR         11.8110    -1.3260    12.6530 n3         1 RDT      -0.822500
     19 SAS         10.3520    -1.5150    13.3720 s6         1 RDT       1.300200
     20 HAA         16.6380    -3.1320     6.1780 h1         1 RDT       0.038700
     21 HAAA        16.9750    -2.4560     7.7940 h1         1 RDT       0.038700
     22 HAAB        16.4760    -4.1630     7.6240 h1         1 RDT       0.038700
     23 HAB         14.2020    -7.0770     8.4430 h1         1 RDT       0.044367
     24 HABA        14.4580    -6.4240    10.0820 h1         1 RDT       0.044367
     25 HABB        12.8440    -6.3360     9.3270 h1         1 RDT       0.044367
     26 HAC         13.2840    -2.6140    14.5070 hc         1 RDT       0.046700
     27 HACA        14.3000    -3.5530    13.3980 hc         1 RDT       0.046700
     28 HACB        14.4180    -1.7860    13.4230 hc         1 RDT       0.046700
     29 HNAD        10.9020     0.0150    14.9180 hn         1 RDT       0.477500
     30 HNAA         9.8080     0.6210    13.7870 hn         1 RDT       0.477500
     31 HAG         14.4970    -0.5940     8.6380 ha         1 RDT       0.128000
     32 HAH         13.1300    -4.7360    10.9470 ha         1 RDT       0.123000
     33 HAI         13.3230     0.7030    10.3900 hc         1 RDT       0.059200
     34 HAIA        14.0140     0.0970    11.8910 hc         1 RDT       0.059200
     35 HAJ         11.6490     0.7140    12.2250 h1         1 RDT       0.047700
     36 HAJA        11.1670    -0.3400    10.8860 h1         1 RDT       0.047700
     37 HAQ         11.9890    -3.4190    12.5600 h1         1 RDT       0.071700
@<TRIPOS>BOND
     1     1    11 1   
     2     1    20 1   
     3     1    21 1   
     4     1    22 1   
     5     2    12 1   
     6     2    23 1   
     7     2    24 1   
     8     2    25 1   
     9     3    17 1   
    10     3    26 1   
    11     3    27 1   
    12     3    28 1   
    13     4    19 1   
    14     4    29 1   
    15     4    30 1   
    16     5    19 2   
    17     6    19 2   
    18     7    13 ar  
    19     7    14 ar  
    20     7    31 1   
    21     8    15 ar  
    22     8    16 ar  
    23     8    32 1   
    24     9    10 1   
    25     9    13 1   
    26     9    33 1   
    27     9    34 1   
    28    10    18 1   
    29    10    35 1   
    30    10    36 1   
    31    11    14 1   
    32    12    15 1   
    33    13    16 ar  
    34    14    15 ar  
    35    16    17 1   
    36    17    18 1   
    37    17    37 1   
    38    18    19 1   
@<TRIPOS>SUBSTRUCTURE
     1 RDT         1 TEMP              0 ****  ****    0 ROOT
