@<TRIPOS>MOLECULE
RDU
   44    48     1     0     0
SMALL
abcg2


@<TRIPOS>ATOM
      1 C18        -44.1660   -28.9570     5.8010 ca         1 RDU       0.185900
      2 C16        -46.3450   -28.5740     5.9850 ca         1 RDU       0.195500
      3 C13        -49.0270   -30.0050     3.9080 ca         1 RDU      -0.046000
      4 C12        -50.3850   -29.8870     4.1760 ca         1 RDU      -0.173000
      5 C11        -50.8020   -29.1310     5.2660 ca         1 RDU       0.187000
      6 C10        -49.9350   -28.4940     6.1290 ca         1 RDU      -0.173000
      7 C20        -44.3070   -30.8400     2.2670 c6         1 RDU       0.210800
      8 C02        -46.9400   -29.2080    -0.5180 c3         1 RDU       0.156600
      9 C03        -45.9130   -29.5840     0.5340 c6         1 RDU       0.149300
     10 C04        -46.5650   -29.9480     1.8590 c6         1 RDU       0.192800
     11 C06        -45.5040   -29.7270     4.0760 ca         1 RDU       0.434900
     12 C07        -46.6420   -29.2810     4.7960 cp         1 RDU      -0.231000
     13 C08        -48.0930   -29.3580     4.7230 cp         1 RDU      -0.058000
     14 C09        -48.5810   -28.6320     5.8460 ca         1 RDU       0.006800
     15 C21        -44.6320   -31.5800     0.9820 cy         1 RDU       0.145000
     16 C23        -45.4090   -32.9060     1.2090 cy         1 RDU      -0.093900
     17 C24        -44.0610   -33.6630     1.1140 cy         1 RDU      -0.089400
     18 C25        -43.4410   -32.4020     0.4580 cy         1 RDU      -0.093900
     19 F14        -52.1360   -29.0310     5.5060 f          1 RDU      -0.183000
     20 N05        -45.5350   -30.2830     2.8380 nh         1 RDU      -0.775300
     21 N15        -47.5080   -28.1590     6.5700 na         1 RDU      -0.330300
     22 N17        -45.1320   -28.3770     6.5080 nb         1 RDU      -0.239000
     23 N19        -44.2830   -29.6010     4.6450 nb         1 RDU      -0.294000
     24 O01        -47.5380   -27.9730    -0.1270 oh         1 RDU      -0.729000
     25 O22        -45.1690   -30.6860     0.0070 os         1 RDU      -0.459000
     26 H181       -43.1620   -28.8830     6.2060 h5         1 RDU       0.049100
     27 H131       -48.7180   -30.6150     3.0750 ha         1 RDU       0.120000
     28 H121       -51.1200   -30.3790     3.5560 ha         1 RDU       0.132000
     29 H101       -50.2950   -27.9380     6.9840 ha         1 RDU       0.138000
     30 H201       -43.8510   -31.5190     2.9840 h1         1 RDU       0.068700
     31 H202       -43.5770   -30.0520     2.0530 h1         1 RDU       0.068700
     32 H022       -47.6900   -30.0020    -0.5980 h1         1 RDU       0.038700
     33 H021       -46.4310   -29.1120    -1.4820 h1         1 RDU       0.038700
     34 H031       -45.2410   -28.7310     0.6910 h1         1 RDU       0.067700
     35 H042       -47.1420   -29.0970     2.2100 h1         1 RDU       0.070700
     36 H041       -47.2440   -30.7890     1.6920 h1         1 RDU       0.070700
     37 H231       -45.9850   -32.9920     2.1310 hc         1 RDU       0.062950
     38 H232       -46.0530   -33.1140     0.3550 hc         1 RDU       0.062950
     39 H241       -44.0510   -34.5760     0.5220 hc         1 RDU       0.054200
     40 H242       -43.6330   -33.8720     2.0940 hc         1 RDU       0.054200
     41 H251       -43.4770   -32.4540    -0.6300 hc         1 RDU       0.062950
     42 H252       -42.4460   -32.0860     0.7740 hc         1 RDU       0.062950
     43 H151       -47.5620   -27.6680     7.4490 hn         1 RDU       0.369000
     44 H011       -48.2250   -27.7530    -0.7670 ho         1 RDU       0.511000
@<TRIPOS>BOND
     1     1    22 ar  
     2     1    23 ar  
     3     1    26 1   
     4     2    12 ar  
     5     2    21 1   
     6     2    22 ar  
     7     3     4 ar  
     8     3    13 ar  
     9     3    27 1   
    10     4     5 ar  
    11     4    28 1   
    12     5     6 ar  
    13     5    19 1   
    14     6    14 ar  
    15     6    29 1   
    16     7    15 1   
    17     7    20 1   
    18     7    30 1   
    19     7    31 1   
    20     8     9 1   
    21     8    24 1   
    22     8    32 1   
    23     8    33 1   
    24     9    10 1   
    25     9    25 1   
    26     9    34 1   
    27    10    20 1   
    28    10    35 1   
    29    10    36 1   
    30    11    12 ar  
    31    11    20 1   
    32    11    23 ar  
    33    12    13 1   
    34    13    14 ar  
    35    14    21 1   
    36    15    16 1   
    37    15    18 1   
    38    15    25 1   
    39    16    17 1   
    40    16    37 1   
    41    16    38 1   
    42    17    18 1   
    43    17    39 1   
    44    17    40 1   
    45    18    41 1   
    46    18    42 1   
    47    21    43 1   
    48    24    44 1   
@<TRIPOS>SUBSTRUCTURE
     1 RDU         1 TEMP              0 ****  ****    0 ROOT
