@<TRIPOS>MOLECULE
RDU
   44    48     1     0     0
SMALL
No Charge or Current Charge


@<TRIPOS>ATOM
      1 C18        -44.1350   -28.1460     5.4870 ca         1 RDU       0.185900
      2 C16        -46.3360   -28.2580     6.0340 ca         1 RDU       0.195500
      3 C13        -48.7280   -30.3920     4.1580 ca         1 RDU      -0.046000
      4 C12        -50.1000   -30.5660     4.4510 ca         1 RDU      -0.173000
      5 C11        -50.7010   -29.8660     5.5230 ca         1 RDU       0.187000
      6 C10        -49.9460   -28.9930     6.3300 ca         1 RDU      -0.173000
      7 C20        -44.4770   -31.0460     2.4450 c6         1 RDU       0.210800
      8 C02        -46.4790   -28.9730    -0.7540 c3         1 RDU       0.156600
      9 C03        -45.5800   -29.3790     0.4530 c6         1 RDU       0.149300
     10 C04        -46.4040   -29.5790     1.7730 c6         1 RDU       0.192800
     11 C06        -45.4820   -29.4140     4.0980 ca         1 RDU       0.434900
     12 C07        -46.5720   -29.1000     4.9420 cp         1 RDU      -0.231000
     13 C08        -47.9830   -29.4880     4.9430 cp         1 RDU      -0.058000
     14 C09        -48.5960   -28.8380     6.0080 ca         1 RDU       0.006800
     15 C21        -44.7190   -31.6160     1.0000 cy         1 RDU       0.145000
     16 C23        -45.8690   -32.6850     0.9160 cy         1 RDU      -0.093900
     17 C24        -44.7840   -33.7670     1.2370 cy         1 RDU      -0.089400
     18 C25        -43.7480   -32.7800     0.6010 cy         1 RDU      -0.093900
     19 F14        -52.0110   -30.0550     5.7910 f          1 RDU      -0.183000
     20 N05        -45.5900   -30.1490     2.8990 nh         1 RDU      -0.775300
     21 N15        -47.5880   -28.1020     6.6410 na         1 RDU      -0.330300
     22 N17        -45.1230   -27.7680     6.3290 nb         1 RDU      -0.239000
     23 N19        -44.2540   -28.9320     4.3910 nb         1 RDU      -0.294000
     24 O01        -47.2470   -27.7800    -0.5040 oh         1 RDU      -0.729000
     25 O22        -44.7980   -30.5470     0.0370 os         1 RDU      -0.459000
     26 H181       -43.1390   -27.7650     5.7070 h5         1 RDU       0.049100
     27 H131       -48.2610   -30.9610     3.3610 ha         1 RDU       0.120000
     28 H121       -50.6970   -31.2530     3.8570 ha         1 RDU       0.132000
     29 H101       -50.3960   -28.4730     7.1720 ha         1 RDU       0.138000
     30 H201       -44.3570   -31.8770     3.1550 h1         1 RDU       0.068700
     31 H202       -43.5220   -30.5000     2.4210 h1         1 RDU       0.068700
     32 H022       -47.1510   -29.8130    -0.9780 h1         1 RDU       0.038700
     33 H021       -45.8300   -28.8270    -1.6290 h1         1 RDU       0.038700
     34 H031       -44.8700   -28.5590     0.6300 h1         1 RDU       0.067700
     35 H042       -46.8290   -28.6080     2.0680 h1         1 RDU       0.070700
     36 H041       -47.2600   -30.2320     1.5520 h1         1 RDU       0.070700
     37 H231       -46.6770   -32.5920     1.6490 hc         1 RDU       0.062950
     38 H232       -46.3160   -32.7810    -0.0810 hc         1 RDU       0.062950
     39 H241       -44.9030   -34.7280     0.7240 hc         1 RDU       0.054200
     40 H242       -44.6350   -33.9650     2.3050 hc         1 RDU       0.054200
     41 H251       -43.6210   -32.9020    -0.4810 hc         1 RDU       0.062950
     42 H252       -42.7560   -32.7600     1.0650 hc         1 RDU       0.062950
     43 H151       -47.7380   -27.5230     7.4590 hn         1 RDU       0.369000
     44 H011       -47.7470   -27.5790    -1.3300 ho         1 RDU       0.511000
@<TRIPOS>BOND
     1     1    22 ar  
     2     1    23 ar  
     3     1    26 1   
     4     2    12 ar  
     5     2    21 1   
     6     2    22 ar  
     7     3     4 ar  
     8     3    13 ar  
     9     3    27 1   
    10     4     5 ar  
    11     4    28 1   
    12     5     6 ar  
    13     5    19 1   
    14     6    14 ar  
    15     6    29 1   
    16     7    15 1   
    17     7    20 1   
    18     7    30 1   
    19     7    31 1   
    20     8     9 1   
    21     8    24 1   
    22     8    32 1   
    23     8    33 1   
    24     9    10 1   
    25     9    25 1   
    26     9    34 1   
    27    10    20 1   
    28    10    35 1   
    29    10    36 1   
    30    11    12 ar  
    31    11    20 1   
    32    11    23 ar  
    33    12    13 1   
    34    13    14 ar  
    35    14    21 1   
    36    15    16 1   
    37    15    18 1   
    38    15    25 1   
    39    16    17 1   
    40    16    37 1   
    41    16    38 1   
    42    17    18 1   
    43    17    39 1   
    44    17    40 1   
    45    18    41 1   
    46    18    42 1   
    47    21    43 1   
    48    24    44 1   
@<TRIPOS>SUBSTRUCTURE
     1 RDU         1 TEMP              0 ****  ****    0 ROOT
