@<TRIPOS>MOLECULE
RDV
   37    38     1     0     0
SMALL
No Charge or Current Charge


@<TRIPOS>ATOM
      1 C4          32.2860     8.1490    63.5810 c5         1 RDV      -0.076900
      2 C5          29.8170     7.8380    62.7710 c3         1 RDV      -0.063400
      3 C6          29.8550     8.7710    61.5350 c3         1 RDV      -0.157400
      4 N1          29.4320     4.6580    58.4650 n7         1 RDV      -0.862400
      5 C7          28.9120     8.2700    60.4270 c          1 RDV       0.607100
      6 C8          28.5730     7.0180    58.2440 c6         1 RDV       0.096000
      7 C9          28.2160     5.5060    58.3290 c6         1 RDV       0.137300
      8 C10         30.2890     5.0870    59.6040 c6         1 RDV       0.137300
      9 C11         30.6480     6.6010    59.5280 c6         1 RDV       0.096000
     10 O           27.7380     8.6190    60.4260 o          1 RDV      -0.610100
     11 C3          30.7750     8.2510    63.9150 c5         1 RDV      -0.070700
     12 C2          30.7310     7.3110    65.1450 c5         1 RDV      -0.076900
     13 C1          31.8910     7.8760    66.0100 c5         1 RDV      -0.078900
     14 C           32.9560     8.3570    64.9710 c5         1 RDV      -0.078900
     15 N           29.4220     7.4480    59.3940 n          1 RDV      -0.413800
     16 H1          32.5390     7.1670    63.1610 hc         1 RDV       0.040950
     17 H2          32.6120     8.9030    62.8550 hc         1 RDV       0.040950
     18 H3          28.7890     7.8140    63.1540 hc         1 RDV       0.045200
     19 H4          30.0450     6.8120    62.4570 hc         1 RDV       0.045200
     20 H5          30.8820     8.8120    61.1610 hc         1 RDV       0.065200
     21 H6          29.5370     9.7720    61.8460 hc         1 RDV       0.065200
     22 H9          29.1230     7.2040    57.3110 h1         1 RDV       0.061200
     23 H10         27.6480     7.6090    58.1910 h1         1 RDV       0.061200
     24 H11         27.6560     5.2090    57.4310 h1         1 RDV       0.038450
     25 H12         27.5610     5.3430    59.1980 h1         1 RDV       0.038450
     26 H13         29.7580     4.8950    60.5480 h1         1 RDV       0.038450
     27 H14         31.2130     4.4910    59.6160 h1         1 RDV       0.038450
     28 H15         31.2390     6.8620    60.4140 h1         1 RDV       0.061200
     29 H16         31.2920     6.7720    58.6540 h1         1 RDV       0.061200
     30 H17         30.5060     9.2760    64.2030 hc         1 RDV       0.052700
     31 H18         29.7690     7.3480    65.6690 hc         1 RDV       0.040950
     32 H19         30.9100     6.2650    64.8660 hc         1 RDV       0.040950
     33 H20         32.2920     7.1210    66.6960 hc         1 RDV       0.041700
     34 H21         31.5460     8.7150    66.6250 hc         1 RDV       0.041700
     35 H22         33.8930     7.7930    65.0510 hc         1 RDV       0.041700
     36 H23         33.2060     9.4110    65.1350 hc         1 RDV       0.041700
     37 H7          29.1490     3.6780    58.6030 hn         1 RDV       0.415000
@<TRIPOS>BOND
     1     1    11 1   
     2     1    14 1   
     3     1    16 1   
     4     1    17 1   
     5     2     3 1   
     6     2    11 1   
     7     2    18 1   
     8     2    19 1   
     9     3     5 1   
    10     3    20 1   
    11     3    21 1   
    12     4     7 1   
    13     4     8 1   
    14     4    37 1   
    15     5    10 2   
    16     5    15 1   
    17     6     7 1   
    18     6    15 1   
    19     6    22 1   
    20     6    23 1   
    21     7    24 1   
    22     7    25 1   
    23     8     9 1   
    24     8    26 1   
    25     8    27 1   
    26     9    15 1   
    27     9    28 1   
    28     9    29 1   
    29    11    12 1   
    30    11    30 1   
    31    12    13 1   
    32    12    31 1   
    33    12    32 1   
    34    13    14 1   
    35    13    33 1   
    36    13    34 1   
    37    14    35 1   
    38    14    36 1   
@<TRIPOS>SUBSTRUCTURE
     1 RDV         1 TEMP              0 ****  ****    0 ROOT
