@<TRIPOS>MOLECULE
RDV
   37    38     1     0     0
SMALL
bcc


@<TRIPOS>ATOM
      1 C4          32.2300     8.3880    63.6040 c5         1 RDV      -0.076900
      2 C5          29.9470     7.7670    62.5890 c3         1 RDV      -0.063400
      3 C6          30.0310     8.7540    61.4190 c3         1 RDV      -0.157400
      4 N1          29.4590     4.7180    58.6260 n7         1 RDV      -0.807200
      5 C7          29.0580     8.3900    60.3180 c          1 RDV       0.674100
      6 C8          28.4650     6.9240    58.4560 c6         1 RDV       0.096000
      7 C9          28.2030     5.4430    58.6690 c6         1 RDV       0.137300
      8 C10         30.3710     5.1800    59.6540 c6         1 RDV       0.137300
      9 C11         30.6490     6.6620    59.4590 c6         1 RDV       0.096000
     10 O           27.9700     8.9550    60.2520 o          1 RDV      -0.610100
     11 C3          30.7150     8.2360    63.8150 c5         1 RDV      -0.070700
     12 C2          30.6210     7.2850    65.0070 c5         1 RDV      -0.076900
     13 C1          31.7240     7.7840    65.9350 c5         1 RDV      -0.078900
     14 C           32.8800     8.1450    64.9860 c5         1 RDV      -0.078900
     15 N           29.4040     7.4090    59.4560 n          1 RDV      -0.480800
     16 H1          32.5770     7.6390    62.8860 hc         1 RDV       0.040950
     17 H2          32.4920     9.3620    63.1890 hc         1 RDV       0.040950
     18 H3          28.8950     7.6260    62.8570 hc         1 RDV       0.045200
     19 H4          30.3200     6.7820    62.2870 hc         1 RDV       0.045200
     20 H5          31.0570     8.8360    61.0560 hc         1 RDV       0.065200
     21 H6          29.7470     9.7470    61.7710 hc         1 RDV       0.065200
     22 H9          28.8930     7.0830    57.4610 h1         1 RDV       0.061200
     23 H10         27.5420     7.4920    58.5170 h1         1 RDV       0.061200
     24 H11         27.5480     5.0770    57.8760 h1         1 RDV       0.038450
     25 H12         27.6650     5.3160    59.6220 h1         1 RDV       0.038450
     26 H13         29.9820     5.0260    60.6740 h1         1 RDV       0.038450
     27 H14         31.3100     4.6280    59.5790 h1         1 RDV       0.038450
     28 H15         31.3200     7.0190    60.2350 h1         1 RDV       0.061200
     29 H16         31.1540     6.8130    58.4990 h1         1 RDV       0.061200
     30 H17         30.3050     9.2070    64.1250 hc         1 RDV       0.052700
     31 H18         29.6330     7.2780    65.4700 hc         1 RDV       0.040950
     32 H19         30.8370     6.2620    64.6760 hc         1 RDV       0.040950
     33 H20         32.0110     7.0560    66.6960 hc         1 RDV       0.041700
     34 H21         31.3750     8.6760    66.4610 hc         1 RDV       0.041700
     35 H22         33.5950     7.3230    64.9270 hc         1 RDV       0.041700
     36 H23         33.4350     9.0140    65.3400 hc         1 RDV       0.041700
     37 H7          29.2870     3.7280    58.7420 hn         1 RDV       0.359800
@<TRIPOS>BOND
     1     1    11 1   
     2     1    14 1   
     3     1    16 1   
     4     1    17 1   
     5     2     3 1   
     6     2    11 1   
     7     2    18 1   
     8     2    19 1   
     9     3     5 1   
    10     3    20 1   
    11     3    21 1   
    12     4     7 1   
    13     4     8 1   
    14     4    37 1   
    15     5    10 2   
    16     5    15 1   
    17     6     7 1   
    18     6    15 1   
    19     6    22 1   
    20     6    23 1   
    21     7    24 1   
    22     7    25 1   
    23     8     9 1   
    24     8    26 1   
    25     8    27 1   
    26     9    15 1   
    27     9    28 1   
    28     9    29 1   
    29    11    12 1   
    30    11    30 1   
    31    12    13 1   
    32    12    31 1   
    33    12    32 1   
    34    13    14 1   
    35    13    33 1   
    36    13    34 1   
    37    14    35 1   
    38    14    36 1   
@<TRIPOS>SUBSTRUCTURE
     1 RDV         1 TEMP              0 ****  ****    0 ROOT
