@<TRIPOS>MOLECULE
RDX
   55    58     1     0     0
SMALL
No Charge or Current Charge


@<TRIPOS>ATOM
      1 N1         -22.0670     6.8810    29.7200 n3         1 RDX      -0.777500
      2 N3         -17.7550     4.1170    24.2890 nb         1 RDX      -0.655000
      3 C4         -22.0230     4.6670    28.6360 c6         1 RDX      -0.094400
      4 C5         -20.5510     4.6940    28.1750 c          1 RDX       0.607100
      5 C6         -19.1610     4.9940    26.0750 ca         1 RDX      -0.077000
      6 C7         -18.8810     4.0810    25.0370 ca         1 RDX       0.309900
      7 C8         -16.8580     5.0940    24.5540 ca         1 RDX       0.359900
      8 C10        -16.0920     7.0780    25.7610 ca         1 RDX      -0.088000
      9 C13        -18.4480     7.0420    27.3000 ca         1 RDX      -0.086000
     10 C15        -22.1860     4.0030    30.0070 ca         1 RDX      -0.046300
     11 C17        -22.2340     2.0040    31.3980 ca         1 RDX       0.127000
     12 C20        -22.4000     4.8060    31.1500 ca         1 RDX      -0.062300
     13 C21        -22.5180     6.3330    31.0260 c6         1 RDX       0.256100
     14 Cl         -22.1280     0.2550    31.5540 cl         1 RDX      -0.206000
     15 C16        -22.1030     2.6040    30.1360 ca         1 RDX      -0.090000
     16 C18        -22.4480     2.7970    32.5370 ca         1 RDX      -0.091000
     17 C19        -22.5330     4.1950    32.4130 ca         1 RDX      -0.100000
     18 S          -22.2620     8.5670    29.5550 s6         1 RDX       1.348200
     19 O1         -23.6740     8.8650    29.8020 o          1 RDX      -0.574500
     20 O2         -21.5610     9.0110    28.3500 o          1 RDX      -0.574500
     21 N          -21.3380     9.0780    30.9010 n3         1 RDX      -0.803500
     22 C1         -21.5370    10.4970    31.2950 c3         1 RDX       0.218800
     23 C2         -20.9720    11.5700    30.3170 c3         1 RDX       0.133600
     24 O          -21.1690    12.8920    30.8450 oh         1 RDX      -0.662000
     25 C          -19.9200     8.6530    30.8810 c3         1 RDX       0.195100
     26 C3         -22.6040     6.0970    28.5950 c6         1 RDX       0.224800
     27 O3         -19.6100     4.5530    28.9500 o          1 RDX      -0.564100
     28 N2         -20.3680     4.8370    26.8080 ns         1 RDX      -0.170000
     29 C14        -18.2320     6.0340    26.3310 ca         1 RDX      -0.004000
     30 C12        -17.4860     8.0470    27.5020 ca         1 RDX      -0.093000
     31 C11        -16.3080     8.0630    26.7390 ca         1 RDX      -0.108000
     32 C9         -17.0540     6.0710    25.5510 ca         1 RDX      -0.092000
     33 H1         -22.5870     4.1310    27.8610 hc         1 RDX       0.065700
     34 H2         -19.5800     3.2770    24.8070 h4         1 RDX       0.019100
     35 H3         -15.9600     5.1010    23.9380 h4         1 RDX       0.021100
     36 H4         -15.1820     7.1030    25.1640 ha         1 RDX       0.117000
     37 H5         -19.3560     7.0680    27.8940 ha         1 RDX       0.138000
     38 H6         -21.9470     6.7800    31.8520 h1         1 RDX       0.065700
     39 H7         -23.5720     6.5950    31.2020 h1         1 RDX       0.065700
     40 H8         -21.9340     1.9810    29.2610 ha         1 RDX       0.128000
     41 H9         -22.5500     2.3290    33.5120 ha         1 RDX       0.133000
     42 H10        -22.7040     4.8040    33.2980 ha         1 RDX       0.120000
     43 H11        -22.6080    10.6990    31.4350 h1         1 RDX       0.078700
     44 H12        -21.0680    10.6660    32.2730 h1         1 RDX       0.078700
     45 H13        -19.9010    11.3870    30.1600 h1         1 RDX       0.029200
     46 H14        -21.4730    11.4790    29.3450 h1         1 RDX       0.029200
     47 H15        -20.7890    13.5240    30.1930 ho         1 RDX       0.449000
     48 H16        -19.4120     8.9510    31.8080 h1         1 RDX       0.057033
     49 H17        -19.8240     7.5630    30.7940 h1         1 RDX       0.057033
     50 H18        -19.3800     9.1060    30.0390 h1         1 RDX       0.057033
     51 H19        -22.3540     6.5610    27.6280 h1         1 RDX       0.067700
     52 H20        -23.7030     6.0500    28.6500 h1         1 RDX       0.067700
     53 H21        -21.2140     4.8530    26.2520 hn         1 RDX       0.156000
     54 H22        -17.6570     8.8190    28.2490 ha         1 RDX       0.120000
     55 H23        -15.5660     8.8430    26.8980 ha         1 RDX       0.115000
@<TRIPOS>BOND
     1     1    13 1   
     2     1    18 1   
     3     1    26 1   
     4     2     6 ar  
     5     2     7 ar  
     6     3     4 1   
     7     3    10 1   
     8     3    26 1   
     9     3    33 1   
    10     4    27 2   
    11     4    28 1   
    12     5     6 ar  
    13     5    28 1   
    14     5    29 ar  
    15     6    34 1   
    16     7    32 ar  
    17     7    35 1   
    18     8    31 ar  
    19     8    32 ar  
    20     8    36 1   
    21     9    29 ar  
    22     9    30 ar  
    23     9    37 1   
    24    10    12 ar  
    25    10    15 ar  
    26    11    14 1   
    27    11    15 ar  
    28    11    16 ar  
    29    12    13 1   
    30    12    17 ar  
    31    13    38 1   
    32    13    39 1   
    33    15    40 1   
    34    16    17 ar  
    35    16    41 1   
    36    17    42 1   
    37    18    19 2   
    38    18    20 2   
    39    18    21 1   
    40    21    22 1   
    41    21    25 1   
    42    22    23 1   
    43    22    43 1   
    44    22    44 1   
    45    23    24 1   
    46    23    45 1   
    47    23    46 1   
    48    24    47 1   
    49    25    48 1   
    50    25    49 1   
    51    25    50 1   
    52    26    51 1   
    53    26    52 1   
    54    28    53 1   
    55    29    32 ar  
    56    30    31 ar  
    57    30    54 1   
    58    31    55 1   
@<TRIPOS>SUBSTRUCTURE
     1 RDX         1 TEMP              0 ****  ****    0 ROOT
