@<TRIPOS>MOLECULE
RDX
   55    58     1     0     0
SMALL
abcg2


@<TRIPOS>ATOM
      1 N1         -22.2960     6.9420    29.6120 n3         1 RDX      -0.777500
      2 N3         -17.2140     3.7520    25.2000 nb         1 RDX      -0.655000
      3 C4         -22.0710     4.7460    28.5890 c6         1 RDX      -0.094400
      4 C5         -20.5870     4.8480    28.2250 c          1 RDX       0.607100
      5 C6         -19.0340     4.8460    26.3340 ca         1 RDX      -0.077000
      6 C7         -18.4420     3.7400    25.7770 ca         1 RDX       0.309900
      7 C8         -16.5520     4.8880    25.1910 ca         1 RDX       0.359900
      8 C10        -16.3130     7.3020    25.6820 ca         1 RDX      -0.088000
      9 C13        -18.8820     7.2980    26.8180 ca         1 RDX      -0.086000
     10 C15        -22.2560     4.1680    29.9700 ca         1 RDX      -0.046300
     11 C17        -22.2440     2.2520    31.4240 ca         1 RDX       0.127000
     12 C20        -22.5740     4.9840    31.0550 ca         1 RDX      -0.062300
     13 C21        -22.7980     6.4670    30.9010 c6         1 RDX       0.256100
     14 CL         -22.0350     0.5270    31.6490 cl         1 RDX      -0.206000
     15 C16        -22.0910     2.7950    30.1610 ca         1 RDX      -0.090000
     16 C18        -22.5600     3.0490    32.5170 ca         1 RDX      -0.091000
     17 C19        -22.7240     4.4120    32.3200 ca         1 RDX      -0.100000
     18 S          -22.1390     8.5630    29.4330 s6         1 RDX       1.348200
     19 O1         -23.3380     9.2760    29.8170 o          1 RDX      -0.574500
     20 O2         -21.6540     8.7650    28.0860 o          1 RDX      -0.574500
     21 N          -21.0170     8.8920    30.5590 n3         1 RDX      -0.803500
     22 C1         -21.1570    10.0710    31.4150 c3         1 RDX       0.218800
     23 C2         -20.7220    11.3640    30.7400 c3         1 RDX       0.133600
     24 O          -20.8560    12.4040    31.7090 oh         1 RDX      -0.662000
     25 C          -19.6700     8.3500    30.3570 c3         1 RDX       0.195100
     26 C3         -22.7260     6.1290    28.4750 c6         1 RDX       0.224800
     27 O3         -19.7110     5.0570    29.0530 o          1 RDX      -0.564100
     28 N2         -20.3330     4.7350    26.8950 ns         1 RDX      -0.170000
     29 C14        -18.3500     6.0900    26.3150 ca         1 RDX      -0.004000
     30 C12        -18.1430     8.4520    26.7540 ca         1 RDX      -0.093000
     31 C11        -16.8480     8.4580    26.1890 ca         1 RDX      -0.108000
     32 C9         -17.0530     6.0970    25.7290 ca         1 RDX      -0.092000
     33 H1         -22.5590     4.0940    27.8610 hc         1 RDX       0.065700
     34 H2         -18.9650     2.7910    25.7850 h4         1 RDX       0.019100
     35 H3         -15.5650     4.8850    24.7380 h4         1 RDX       0.021100
     36 H4         -15.3250     7.2930    25.2380 ha         1 RDX       0.117000
     37 H5         -19.8700     7.3160    27.2510 ha         1 RDX       0.138000
     38 H6         -22.2790     7.0020    31.6940 h1         1 RDX       0.065700
     39 H7         -23.8690     6.6860    30.9980 h1         1 RDX       0.065700
     40 H8         -21.8450     2.1590    29.3200 ha         1 RDX       0.128000
     41 H9         -22.6740     2.6140    33.5000 ha         1 RDX       0.133000
     42 H10        -22.9690     5.0440    33.1650 ha         1 RDX       0.120000
     43 H11        -22.1920    10.1540    31.7390 h1         1 RDX       0.078700
     44 H12        -20.5400     9.8920    32.2960 h1         1 RDX       0.078700
     45 H13        -19.6850    11.2840    30.3990 h1         1 RDX       0.029200
     46 H14        -21.3570    11.5590    29.8690 h1         1 RDX       0.029200
     47 H15        -20.5520    13.2300    31.3160 ho         1 RDX       0.449000
     48 H16        -19.2010     8.2470    31.3350 h1         1 RDX       0.057033
     49 H17        -19.7370     7.3660    29.9000 h1         1 RDX       0.057033
     50 H18        -19.0560     8.9970    29.7280 h1         1 RDX       0.057033
     51 H19        -22.4350     6.6180    27.5520 h1         1 RDX       0.067700
     52 H20        -23.8150     6.0120    28.4800 h1         1 RDX       0.067700
     53 H21        -21.0810     4.4330    26.2880 hn         1 RDX       0.156000
     54 H22        -18.5580     9.3730    27.1420 ha         1 RDX       0.120000
     55 H23        -16.2840     9.3820    26.1550 ha         1 RDX       0.115000
@<TRIPOS>BOND
     1     1    13 1   
     2     1    18 1   
     3     1    26 1   
     4     2     6 ar  
     5     2     7 ar  
     6     3     4 1   
     7     3    10 1   
     8     3    26 1   
     9     3    33 1   
    10     4    27 2   
    11     4    28 1   
    12     5     6 ar  
    13     5    28 1   
    14     5    29 ar  
    15     6    34 1   
    16     7    32 ar  
    17     7    35 1   
    18     8    31 ar  
    19     8    32 ar  
    20     8    36 1   
    21     9    29 ar  
    22     9    30 ar  
    23     9    37 1   
    24    10    12 ar  
    25    10    15 ar  
    26    11    14 1   
    27    11    15 ar  
    28    11    16 ar  
    29    12    13 1   
    30    12    17 ar  
    31    13    38 1   
    32    13    39 1   
    33    15    40 1   
    34    16    17 ar  
    35    16    41 1   
    36    17    42 1   
    37    18    19 2   
    38    18    20 2   
    39    18    21 1   
    40    21    22 1   
    41    21    25 1   
    42    22    23 1   
    43    22    43 1   
    44    22    44 1   
    45    23    24 1   
    46    23    45 1   
    47    23    46 1   
    48    24    47 1   
    49    25    48 1   
    50    25    49 1   
    51    25    50 1   
    52    26    51 1   
    53    26    52 1   
    54    28    53 1   
    55    29    32 ar  
    56    30    31 ar  
    57    30    54 1   
    58    31    55 1   
@<TRIPOS>SUBSTRUCTURE
     1 RDX         1 TEMP              0 ****  ****    0 ROOT
