@<TRIPOS>MOLECULE
RDY
   31    31     1     0     0
SMALL
abcg2


@<TRIPOS>ATOM
      1 O3          51.5530     9.7070    46.4130 os         1 RDY      -0.441100
      2 C4          51.4170     9.1690    45.1910 c          1 RDY       0.639100
      3 C5          50.9390     9.0140    47.4960 c3         1 RDY       0.228900
      4 C6          51.3150     9.7230    48.7640 ca         1 RDY      -0.074300
      5 C7          50.3330    10.1780    49.6370 ca         1 RDY      -0.088000
      6 C8          50.6780    10.8010    50.8300 ca         1 RDY      -0.119500
      7 C9          52.0140    10.9860    51.1550 ca         1 RDY      -0.115000
      8 C10         53.0020    10.5410    50.2840 ca         1 RDY      -0.119500
      9 C11         52.6550     9.9110    49.0990 ca         1 RDY      -0.088000
     10 O2          50.7550     8.1660    44.9870 o          1 RDY      -0.601000
     11 N           52.0890     9.8360    44.2390 n          1 RDY      -0.345800
     12 C3          51.8830     9.3920    42.8750 c3         1 RDY       0.113300
     13 C1          52.7810    11.1000    44.4500 c3         1 RDY      -0.039300
     14 C2          51.9670    12.2980    43.8830 c          1 RDY       0.712000
     15 O1          52.6130    13.3430    43.6810 o          1 RDY      -0.720000
     16 O           50.7460    12.1200    43.7280 o          1 RDY      -0.720000
     17 C           54.2180    11.0350    43.9430 c3         1 RDY      -0.071100
     18 H1          49.8530     8.9940    47.3760 h1         1 RDY       0.045700
     19 H2          51.2880     7.9780    47.5260 h1         1 RDY       0.045700
     20 H3          49.2870    10.0440    49.3850 ha         1 RDY       0.117500
     21 H4          49.9020    11.1460    51.5010 ha         1 RDY       0.104000
     22 H5          52.2860    11.4730    52.0820 ha         1 RDY       0.100000
     23 H6          54.0460    10.6800    50.5320 ha         1 RDY       0.104000
     24 H7          53.4340     9.5600    48.4320 ha         1 RDY       0.117500
     25 H8          50.8280     9.3980    42.5980 h1         1 RDY       0.032033
     26 H9          52.4040    10.0630    42.1980 h1         1 RDY       0.032033
     27 H10         52.2760     8.3880    42.7130 h1         1 RDY       0.032033
     28 H11         52.8400    11.2640    45.5270 h1         1 RDY       0.058700
     29 H13         54.7440    10.1880    44.3860 hc         1 RDY       0.020700
     30 H14         54.2800    10.9400    42.8580 hc         1 RDY       0.020700
     31 H15         54.7510    11.9410    44.2200 hc         1 RDY       0.020700
@<TRIPOS>BOND
     1     1     2 1   
     2     1     3 1   
     3     2    10 2   
     4     2    11 1   
     5     3     4 1   
     6     3    18 1   
     7     3    19 1   
     8     4     5 ar  
     9     4     9 ar  
    10     5     6 ar  
    11     5    20 1   
    12     6     7 ar  
    13     6    21 1   
    14     7     8 ar  
    15     7    22 1   
    16     8     9 ar  
    17     8    23 1   
    18     9    24 1   
    19    11    12 1   
    20    11    13 1   
    21    12    25 1   
    22    12    26 1   
    23    12    27 1   
    24    13    14 1   
    25    13    17 1   
    26    13    28 1   
    27    14    15 1   
    28    14    16 1   
    29    17    29 1   
    30    17    30 1   
    31    17    31 1   
@<TRIPOS>SUBSTRUCTURE
     1 RDY         1 TEMP              0 ****  ****    0 ROOT
