@<TRIPOS>MOLECULE
RDY
   31    31     1     0     0
SMALL
No Charge or Current Charge


@<TRIPOS>ATOM
      1 O3          51.6020     9.5730    46.3900 os         1 RDY      -0.441100
      2 C4          51.4240     9.0610    45.1350 c          1 RDY       0.639100
      3 C5          51.1940     8.7720    47.5080 c3         1 RDY       0.228900
      4 C6          51.4980     9.5420    48.7870 ca         1 RDY      -0.074300
      5 C7          50.4960    10.3130    49.4100 ca         1 RDY      -0.088000
      6 C8          50.7790    11.0230    50.5900 ca         1 RDY      -0.119500
      7 C9          52.0660    10.9680    51.1530 ca         1 RDY      -0.115000
      8 C10         53.0690    10.2040    50.5350 ca         1 RDY      -0.119500
      9 C11         52.7860     9.4930    49.3550 ca         1 RDY      -0.088000
     10 O2          50.9450     7.9560    44.9110 o          1 RDY      -0.601000
     11 N           51.8880     9.9250    44.1170 n          1 RDY      -0.345800
     12 C3          51.8370     9.4790    42.7070 c3         1 RDY       0.113300
     13 C1          52.4290    11.2990    44.3980 c3         1 RDY      -0.039300
     14 C2          51.9000    12.3950    43.4140 c          1 RDY       0.712000
     15 O1          52.6190    12.7880    42.5050 o          1 RDY      -0.720000
     16 O           50.7790    12.8430    43.6130 o          1 RDY      -0.720000
     17 C           53.9750    11.2770    44.5020 c3         1 RDY      -0.071100
     18 H1          50.1190     8.5510    47.4570 h1         1 RDY       0.045700
     19 H2          51.7360     7.8170    47.5210 h1         1 RDY       0.045700
     20 H3          49.4980    10.3630    48.9790 ha         1 RDY       0.117500
     21 H4          50.0020    11.6160    51.0670 ha         1 RDY       0.104000
     22 H5          52.2840    11.5180    52.0660 ha         1 RDY       0.100000
     23 H6          54.0660    10.1620    50.9680 ha         1 RDY       0.104000
     24 H7          53.5690     8.9050    48.8800 ha         1 RDY       0.117500
     25 H8          50.8230     9.6230    42.3130 h1         1 RDY       0.032033
     26 H9          52.5450    10.0520    42.0960 h1         1 RDY       0.032033
     27 H10         52.1040     8.4170    42.6370 h1         1 RDY       0.032033
     28 H11         52.0590    11.6300    45.3750 h1         1 RDY       0.058700
     29 H13         54.2950    10.5760    45.2830 hc         1 RDY       0.020700
     30 H14         54.4310    10.9640    43.5560 hc         1 RDY       0.020700
     31 H15         54.3580    12.2710    44.7620 hc         1 RDY       0.020700
@<TRIPOS>BOND
     1     1     2 1   
     2     1     3 1   
     3     2    10 2   
     4     2    11 1   
     5     3     4 1   
     6     3    18 1   
     7     3    19 1   
     8     4     5 ar  
     9     4     9 ar  
    10     5     6 ar  
    11     5    20 1   
    12     6     7 ar  
    13     6    21 1   
    14     7     8 ar  
    15     7    22 1   
    16     8     9 ar  
    17     8    23 1   
    18     9    24 1   
    19    11    12 1   
    20    11    13 1   
    21    12    25 1   
    22    12    26 1   
    23    12    27 1   
    24    13    14 1   
    25    13    17 1   
    26    13    28 1   
    27    14    15 1   
    28    14    16 1   
    29    17    29 1   
    30    17    30 1   
    31    17    31 1   
@<TRIPOS>SUBSTRUCTURE
     1 RDY         1 TEMP              0 ****  ****    0 ROOT
