@<TRIPOS>MOLECULE
RE1
   42    41     1     0     0
SMALL
No Charge or Current Charge


@<TRIPOS>ATOM
      1 N2          -0.6120     3.6130     2.7140 nz         1 RE1      -0.945000
      2 C4          -1.0130     4.2590     1.3730 c3         1 RE1      -0.024400
      3 C5           0.0470     4.0670     0.2550 c          1 RE1       0.568100
      4 N3          -0.3290     4.5380    -0.9840 ns         1 RE1      -0.400900
      5 C6           0.4820     4.4520    -2.2230 c3         1 RE1      -0.053300
      6 C7           0.5430     3.0060    -2.7900 c3         1 RE1      -0.069400
      7 C8          -0.8300     2.3960    -3.1600 c3         1 RE1      -0.074400
      8 C9          -0.7200     0.9600    -3.7180 c3         1 RE1      -0.069400
      9 C10         -2.0910     0.3490    -4.0910 c3         1 RE1      -0.158400
     10 C11         -1.9450    -1.0810    -4.6370 c          1 RE1       0.571100
     11 N4          -2.3700    -2.0740    -3.7760 ns         1 RE1      -0.406900
     12 C12         -2.3670    -3.5350    -4.0560 c3         1 RE1      -0.209300
     13 P1          -2.2040    -4.5730    -2.4980 p5         1 RE1       1.294500
     14 O3           1.1330     3.5420     0.4660 o          1 RE1      -0.650100
     15 C13         -0.0190     5.4830    -3.2820 c          1 RE1       0.721000
     16 O4           0.7980     5.9330    -4.0730 o          1 RE1      -0.711500
     17 O5          -1.1720     5.8880    -3.2050 o          1 RE1      -0.711500
     18 O6          -1.5140    -1.3120    -5.7610 o          1 RE1      -0.698100
     19 C14         -3.5830    -3.9330    -4.9240 c3         1 RE1      -0.057100
     20 O7          -0.8970    -4.2590    -1.8500 o          1 RE1      -0.929167
     21 O8          -3.3190    -4.2250    -1.5700 o          1 RE1      -0.929167
     22 H1           0.2840     3.9730     3.0810 hn         1 RE1       0.509000
     23 H2          -0.4710     2.5920     2.6440 hn         1 RE1       0.509000
     24 H3          -1.3020     3.7490     3.4700 hn         1 RE1       0.509000
     25 H4          -1.9490     3.8190     1.0160 hx         1 RE1       0.110700
     26 H5          -1.1500     5.3360     1.5090 hx         1 RE1       0.110700
     27 H6          -1.2410     4.9790    -1.0530 hn         1 RE1       0.352500
     28 H7           1.5060     4.7530    -1.9650 h1         1 RE1       0.053700
     29 H8           1.1860     3.0060    -3.6790 hc         1 RE1       0.047700
     30 H9           1.0350     2.3560    -2.0560 hc         1 RE1       0.047700
     31 H10         -1.4760     2.3840    -2.2730 hc         1 RE1       0.034200
     32 H11         -1.3220     3.0310    -3.9070 hc         1 RE1       0.034200
     33 H12         -0.2320     0.3190    -2.9730 hc         1 RE1       0.048200
     34 H13         -0.0740     0.9660    -4.6050 hc         1 RE1       0.048200
     35 H14         -2.7230     0.3460    -3.1950 hc         1 RE1       0.034700
     36 H15         -2.5500     0.9770    -4.8640 hc         1 RE1       0.034700
     37 H16         -2.6980    -1.7660    -2.8670 hn         1 RE1       0.325500
     38 H17         -1.4560    -3.7660    -4.6210 h1         1 RE1       0.046700
     39 H18         -3.6030    -3.3540    -5.8550 hc         1 RE1       0.005033
     40 H19         -4.5210    -3.7500    -4.3870 hc         1 RE1       0.005033
     41 H20         -3.5400    -4.9950    -5.1910 hc         1 RE1       0.005033
     42 O9          -2.2580    -6.0220    -2.8490 o          1 RE1      -0.929167
@<TRIPOS>BOND
     1     1     2 1   
     2     1    22 1   
     3     1    23 1   
     4     1    24 1   
     5     2     3 1   
     6     2    25 1   
     7     2    26 1   
     8     3     4 1   
     9     3    14 2   
    10     4     5 1   
    11     4    27 1   
    12     5     6 1   
    13     5    15 1   
    14     5    28 1   
    15     6     7 1   
    16     6    29 1   
    17     6    30 1   
    18     7     8 1   
    19     7    31 1   
    20     7    32 1   
    21     8     9 1   
    22     8    33 1   
    23     8    34 1   
    24     9    10 1   
    25     9    35 1   
    26     9    36 1   
    27    10    11 1   
    28    10    18 2   
    29    11    12 1   
    30    11    37 1   
    31    12    13 1   
    32    12    19 1   
    33    12    38 1   
    34    13    20 1   
    35    13    21 1   
    36    13    42 1   
    37    15    16 1   
    38    15    17 1   
    39    19    39 1   
    40    19    40 1   
    41    19    41 1   
@<TRIPOS>SUBSTRUCTURE
     1 RE1         1 TEMP              0 ****  ****    0 ROOT
