@<TRIPOS>MOLECULE
RE1
   42    41     1     0     0
SMALL
abcg2


@<TRIPOS>ATOM
      1 N2          -0.3670     3.2820     2.4910 nz         1 RE1      -0.945000
      2 C4          -0.9680     3.8980     1.2960 c3         1 RE1      -0.024400
      3 C5           0.0370     3.8790     0.1510 c          1 RE1       0.568100
      4 N3          -0.4280     4.3920    -0.9800 ns         1 RE1      -0.400900
      5 C6           0.3240     4.5070    -2.2130 c3         1 RE1      -0.053300
      6 C7           0.5040     3.1510    -2.9030 c3         1 RE1      -0.069400
      7 C8          -0.8030     2.4750    -3.3010 c3         1 RE1      -0.074400
      8 C9          -0.5900     1.0320    -3.7400 c3         1 RE1      -0.069400
      9 C10         -1.8970     0.3340    -4.1070 c3         1 RE1      -0.158400
     10 C11         -1.6760    -1.1190    -4.4760 c          1 RE1       0.571100
     11 N4          -2.3700    -2.0010    -3.7560 ns         1 RE1      -0.406900
     12 C12         -2.3230    -3.4450    -3.8930 c3         1 RE1      -0.209300
     13 P1          -2.6290    -4.1800    -2.1920 p5         1 RE1       1.294500
     14 O3           1.1570     3.4170     0.3210 o          1 RE1      -0.650100
     15 C13         -0.3970     5.5120    -3.1390 c          1 RE1       0.721000
     16 O4           0.2240     5.8170    -4.1700 o          1 RE1      -0.711500
     17 O5          -1.5230     5.9120    -2.7840 o          1 RE1      -0.711500
     18 O6          -0.8870    -1.4350    -5.3660 o          1 RE1      -0.698100
     19 C14         -3.3370    -3.9220    -4.9260 c3         1 RE1      -0.057100
     20 O7          -1.3790    -3.8480    -1.3730 o          1 RE1      -0.929167
     21 O8          -3.8890    -3.4330    -1.7220 o          1 RE1      -0.929167
     22 H1           0.4610     3.7870     2.8070 hn         1 RE1       0.509000
     23 H2          -0.0820     2.3180     2.3190 hn         1 RE1       0.509000
     24 H3          -1.0280     3.2690     3.2670 hn         1 RE1       0.509000
     25 H4          -1.8650     3.3360     1.0430 hx         1 RE1       0.110700
     26 H5          -1.2600     4.9150     1.5530 hx         1 RE1       0.110700
     27 H6          -1.3500     4.8100    -1.0170 hn         1 RE1       0.352500
     28 H7           1.3160     4.9090    -1.9840 h1         1 RE1       0.053700
     29 H8           1.1330     3.2980    -3.7840 hc         1 RE1       0.047700
     30 H9           1.0650     2.4900    -2.2380 hc         1 RE1       0.047700
     31 H10         -1.4970     2.4920    -2.4550 hc         1 RE1       0.034200
     32 H11         -1.2860     3.0340    -4.1090 hc         1 RE1       0.034200
     33 H12         -0.1020     0.4810    -2.9290 hc         1 RE1       0.048200
     34 H13          0.0930     0.9970    -4.5910 hc         1 RE1       0.048200
     35 H14         -2.6060     0.4250    -3.2810 hc         1 RE1       0.034700
     36 H15         -2.3510     0.8400    -4.9660 hc         1 RE1       0.034700
     37 H16         -3.0070    -1.6630    -3.0490 hn         1 RE1       0.325500
     38 H17         -1.3190    -3.7170    -4.2290 h1         1 RE1       0.046700
     39 H18         -3.1650    -3.4700    -5.9050 hc         1 RE1       0.005033
     40 H19         -4.3510    -3.6690    -4.6090 hc         1 RE1       0.005033
     41 H20         -3.2850    -5.0050    -5.0370 hc         1 RE1       0.005033
     42 O9          -2.8370    -5.6780    -2.4340 o          1 RE1      -0.929167
@<TRIPOS>BOND
     1     1     2 1   
     2     1    22 1   
     3     1    23 1   
     4     1    24 1   
     5     2     3 1   
     6     2    25 1   
     7     2    26 1   
     8     3     4 1   
     9     3    14 2   
    10     4     5 1   
    11     4    27 1   
    12     5     6 1   
    13     5    15 1   
    14     5    28 1   
    15     6     7 1   
    16     6    29 1   
    17     6    30 1   
    18     7     8 1   
    19     7    31 1   
    20     7    32 1   
    21     8     9 1   
    22     8    33 1   
    23     8    34 1   
    24     9    10 1   
    25     9    35 1   
    26     9    36 1   
    27    10    11 1   
    28    10    18 2   
    29    11    12 1   
    30    11    37 1   
    31    12    13 1   
    32    12    19 1   
    33    12    38 1   
    34    13    20 1   
    35    13    21 1   
    36    13    42 1   
    37    15    16 1   
    38    15    17 1   
    39    19    39 1   
    40    19    40 1   
    41    19    41 1   
@<TRIPOS>SUBSTRUCTURE
     1 RE1         1 TEMP              0 ****  ****    0 ROOT
