@<TRIPOS>MOLECULE
RE2
   31    32     1     0     0
SMALL
No Charge or Current Charge


@<TRIPOS>ATOM
      1 C2           3.8150    -1.1870    -0.0790 ca         1 RE2       0.175600
      2 C3           4.4910     0.0330    -0.2080 ca         1 RE2      -0.186000
      3 C4           3.7850     1.2370    -0.0880 ca         1 RE2       0.175600
      4 C8          -0.6010    -0.0320    -0.7450 c3         1 RE2      -0.021100
      5 C5           2.4050     1.2230     0.1620 ca         1 RE2      -0.242500
      6 C6           1.7210     0.0010     0.2940 ca         1 RE2       0.002700
      7 C1           2.4350    -1.2060     0.1700 ca         1 RE2      -0.242500
      8 O17          4.4430     2.4210    -0.2140 oh         1 RE2      -0.530600
      9 O16          4.5020    -2.3550    -0.1980 oh         1 RE2      -0.530600
     10 C9          -2.1000    -0.0500    -0.4790 ca         1 RE2      -0.119300
     11 C14         -2.8140     1.1590    -0.3540 ca         1 RE2      -0.068000
     12 C13         -4.1980     1.1410    -0.1030 ca         1 RE2      -0.173000
     13 C12         -4.8730    -0.0830     0.0240 ca         1 RE2       0.137100
     14 O15         -6.2130    -0.1080     0.2660 oh         1 RE2      -0.534100
     15 C11         -4.1670    -1.2890    -0.0980 ca         1 RE2      -0.173000
     16 C10         -2.7830    -1.2750    -0.3480 ca         1 RE2      -0.068000
     17 H3           5.5590     0.0460    -0.4010 ha         1 RE2       0.144000
     18 H8          -0.3340     0.8470    -1.3460 hc         1 RE2       0.050200
     19 H8A         -0.3110    -0.9070    -1.3400 hc         1 RE2       0.050200
     20 H7          -0.0670     0.8580     1.1550 hc         1 RE2       0.051700
     21 H7A         -0.0450    -0.8950     1.1610 hc         1 RE2       0.051700
     22 H5           1.8570     2.1580     0.2530 ha         1 RE2       0.114500
     23 H1           1.9100    -2.1530     0.2680 ha         1 RE2       0.114500
     24 HO17         3.7920     3.1450    -0.1000 ho         1 RE2       0.465500
     25 HO16         3.8690    -3.0940    -0.0790 ho         1 RE2       0.465500
     26 H14         -2.2960     2.1110    -0.4490 ha         1 RE2       0.111000
     27 H13         -4.7360     2.0810    -0.0090 ha         1 RE2       0.120000
     28 HO15        -6.5360     0.8170     0.3200 ho         1 RE2       0.464000
     29 H11         -4.6900    -2.2370     0.0020 ha         1 RE2       0.120000
     30 H10         -2.2430    -2.2150    -0.4390 ha         1 RE2       0.111000
     31 C7           0.2210    -0.0170     0.5600 c3         1 RE2      -0.036100
@<TRIPOS>BOND
     1     1     2 ar  
     2     1     7 ar  
     3     1     9 1   
     4     2     3 ar  
     5     2    17 1   
     6     3     5 ar  
     7     3     8 1   
     8     4    10 1   
     9     4    18 1   
    10     4    19 1   
    11     4    31 1   
    12     5     6 ar  
    13     5    22 1   
    14     6     7 ar  
    15     6    31 1   
    16     7    23 1   
    17     8    24 1   
    18     9    25 1   
    19    10    11 ar  
    20    10    16 ar  
    21    11    12 ar  
    22    11    26 1   
    23    12    13 ar  
    24    12    27 1   
    25    13    14 1   
    26    13    15 ar  
    27    14    28 1   
    28    15    16 ar  
    29    15    29 1   
    30    16    30 1   
    31    20    31 1   
    32    21    31 1   
@<TRIPOS>SUBSTRUCTURE
     1 RE2         1 TEMP              0 ****  ****    0 ROOT
