@<TRIPOS>MOLECULE
RE2
   31    32     1     0     0
SMALL
bcc


@<TRIPOS>ATOM
      1 C2           3.7300    -1.1590    -0.0950 ca         1 RE2       0.175600
      2 C3           4.4320     0.0360    -0.2070 ca         1 RE2      -0.204000
      3 C4           3.7520     1.2390    -0.0560 ca         1 RE2       0.175600
      4 C8          -0.5860    -0.1110    -0.7520 c3         1 RE2      -0.021100
      5 C5           2.3820     1.2510     0.2050 ca         1 RE2      -0.260500
      6 C6           1.6890     0.0520     0.3180 ca         1 RE2       0.002700
      7 C1           2.3620    -1.1560     0.1670 ca         1 RE2      -0.260500
      8 O17          4.4710     2.3730    -0.1720 oh         1 RE2      -0.491600
      9 O16          4.4300    -2.3010    -0.2490 oh         1 RE2      -0.491600
     10 C9          -2.0700    -0.1000    -0.5140 ca         1 RE2      -0.119300
     11 C14         -2.7630     1.0980    -0.3620 ca         1 RE2      -0.086000
     12 C13         -4.1240     1.1210    -0.0930 ca         1 RE2      -0.191000
     13 C12         -4.8280    -0.0730     0.0310 ca         1 RE2       0.137100
     14 O15         -6.1530    -0.1150     0.2920 oh         1 RE2      -0.495100
     15 C11         -4.1530    -1.2820    -0.1200 ca         1 RE2      -0.191000
     16 C10         -2.7930    -1.2840    -0.3880 ca         1 RE2      -0.086000
     17 H3           5.4960     0.0300    -0.4060 ha         1 RE2       0.162000
     18 H8          -0.3100     0.6920    -1.4400 hc         1 RE2       0.050200
     19 H8A         -0.2920    -1.0480    -1.2290 hc         1 RE2       0.050200
     20 H7          -0.0930     0.9920     1.0340 hc         1 RE2       0.051700
     21 H7A         -0.0670    -0.7500     1.2410 hc         1 RE2       0.051700
     22 H5           1.8580     2.1920     0.3300 ha         1 RE2       0.132500
     23 H1           1.8210    -2.0920     0.2610 ha         1 RE2       0.132500
     24 HO17         3.9000     3.1420    -0.0610 ho         1 RE2       0.426500
     25 HO16         3.8490    -3.0640    -0.1580 ho         1 RE2       0.426500
     26 H14         -2.2330     2.0390    -0.4580 ha         1 RE2       0.129000
     27 H13         -4.6340     2.0710     0.0200 ha         1 RE2       0.138000
     28 HO15        -6.5000     0.7770     0.3960 ho         1 RE2       0.425000
     29 H11         -4.6940    -2.2150    -0.0270 ha         1 RE2       0.138000
     30 H10         -2.2840    -2.2340    -0.5060 ha         1 RE2       0.129000
     31 C7           0.2050     0.0560     0.5550 c3         1 RE2      -0.036100
@<TRIPOS>BOND
     1     1     2 ar  
     2     1     7 ar  
     3     1     9 1   
     4     2     3 ar  
     5     2    17 1   
     6     3     5 ar  
     7     3     8 1   
     8     4    10 1   
     9     4    18 1   
    10     4    19 1   
    11     4    31 1   
    12     5     6 ar  
    13     5    22 1   
    14     6     7 ar  
    15     6    31 1   
    16     7    23 1   
    17     8    24 1   
    18     9    25 1   
    19    10    11 ar  
    20    10    16 ar  
    21    11    12 ar  
    22    11    26 1   
    23    12    13 ar  
    24    12    27 1   
    25    13    14 1   
    26    13    15 ar  
    27    14    28 1   
    28    15    16 ar  
    29    15    29 1   
    30    16    30 1   
    31    20    31 1   
    32    21    31 1   
@<TRIPOS>SUBSTRUCTURE
     1 RE2         1 TEMP              0 ****  ****    0 ROOT
