@<TRIPOS>MOLECULE
RE4
   29    30     1     0     0
SMALL
No Charge or Current Charge


@<TRIPOS>ATOM
      1 C4          24.6910     2.5520    59.9350 ca         1 RE4       0.406900
      2 C5          21.2840     0.2870    61.1280 c3         1 RE4       0.287100
      3 C6          20.6410     0.4980    59.7680 ca         1 RE4      -0.167300
      4 N1          25.8670     2.0360    59.5530 nb         1 RE4      -0.288000
      5 C7          20.4620     1.7890    59.2370 ca         1 RE4      -0.041000
      6 C8          19.8550     1.9110    57.9780 ca         1 RE4      -0.171000
      7 N2          24.5690     3.8950    59.8340 nv         1 RE4      -1.054900
      8 C9          19.4470     0.7520    57.2970 ca         1 RE4       0.338900
      9 C10         20.2010    -0.6070    59.0160 ca         1 RE4       0.341900
     10 N3          22.6770    -0.1640    60.9780 nu         1 RE4      -0.931100
     11 N4          19.6120    -0.4920    57.8020 nb         1 RE4      -0.668000
     12 C1          25.9880     0.6990    59.6570 ca         1 RE4       0.192300
     13 C           27.3080     0.0870    59.2290 c3         1 RE4      -0.149400
     14 N           23.6230     1.9000    60.4020 nb         1 RE4      -0.329000
     15 C3          23.7510     0.5670    60.4980 ca         1 RE4       0.420900
     16 C2          24.9290    -0.0890    60.1360 ca         1 RE4      -0.342000
     17 H1          21.2420     1.2170    61.7130 h1         1 RE4       0.062700
     18 H2          20.7040    -0.4670    61.6800 h1         1 RE4       0.062700
     19 H3          20.7860     2.6720    59.7850 ha         1 RE4       0.129000
     20 H4          19.6980     2.8880    57.5290 ha         1 RE4       0.123000
     21 H5          25.2570     4.4010    59.2830 hn         1 RE4       0.484000
     22 H6          23.6410     4.3030    59.9000 hn         1 RE4       0.484000
     23 H7          18.9730     0.8210    56.3180 h4         1 RE4       0.018100
     24 H8          20.3200    -1.6210    59.3970 h4         1 RE4       0.011100
     25 H9          22.8490    -1.1650    61.0720 hn         1 RE4       0.493000
     26 H10         27.3560    -0.0100    58.1380 hc         1 RE4       0.052700
     27 H11         28.1560     0.7030    59.5500 hc         1 RE4       0.052700
     28 H12         27.4430    -0.9120    59.6600 hc         1 RE4       0.052700
     29 H13         25.0240    -1.1670    60.2170 ha         1 RE4       0.127000
@<TRIPOS>BOND
     1     1     4 ar  
     2     1     7 1   
     3     1    14 ar  
     4     2     3 1   
     5     2    10 1   
     6     2    17 1   
     7     2    18 1   
     8     3     5 ar  
     9     3     9 ar  
    10     4    12 ar  
    11     5     6 ar  
    12     5    19 1   
    13     6     8 ar  
    14     6    20 1   
    15     7    21 1   
    16     7    22 1   
    17     8    11 ar  
    18     8    23 1   
    19     9    11 ar  
    20     9    24 1   
    21    10    15 1   
    22    10    25 1   
    23    12    13 1   
    24    12    16 ar  
    25    13    26 1   
    26    13    27 1   
    27    13    28 1   
    28    14    15 ar  
    29    15    16 ar  
    30    16    29 1   
@<TRIPOS>SUBSTRUCTURE
     1 RE4         1 TEMP              0 ****  ****    0 ROOT
