@<TRIPOS>MOLECULE
RE4
   29    30     1     0     0
SMALL
bcc


@<TRIPOS>ATOM
      1 C4          24.6270     2.4910    59.8650 ca         1 RE4       0.932900
      2 C5          21.3780     0.2980    61.0750 c3         1 RE4       0.287100
      3 C6          20.6600     0.5310    59.7680 ca         1 RE4      -0.232600
      4 N1          25.8260     2.0080    59.5500 nb         1 RE4      -0.814000
      5 C7          20.5240     1.7970    59.2130 ca         1 RE4      -0.059000
      6 C8          19.8770     1.9350    57.9950 ca         1 RE4      -0.254300
      7 N2          24.4560     3.8310    59.7660 nv         1 RE4      -0.944500
      8 C9          19.3920     0.7970    57.3700 ca         1 RE4       0.404200
      9 C10         20.1280    -0.5390    59.0550 ca         1 RE4       0.407200
     10 N3          22.7070    -0.2410    60.9020 nu         1 RE4      -0.875900
     11 N4          19.5110    -0.4220    57.8870 nb         1 RE4      -0.668000
     12 C1          25.9890     0.6870    59.6970 ca         1 RE4       0.520600
     13 C           27.3330     0.1400    59.3330 c3         1 RE4      -0.149400
     14 N           23.5770     1.7920    60.3010 nb         1 RE4      -0.855000
     15 C3          23.7470     0.4830    60.4440 ca         1 RE4       0.749200
     16 C2          24.9800    -0.1330    60.1480 ca         1 RE4      -0.490600
     17 H1          21.4290     1.2290    61.6410 h1         1 RE4       0.062700
     18 H2          20.8220    -0.4150    61.6830 h1         1 RE4       0.062700
     19 H3          20.9240     2.6610    59.7270 ha         1 RE4       0.147000
     20 H4          19.7500     2.9050    57.5340 ha         1 RE4       0.141000
     21 H5          25.1320     4.3500    59.2330 hn         1 RE4       0.428800
     22 H6          23.5140     4.1830    59.7500 hn         1 RE4       0.428800
     23 H7          18.8830     0.8720    56.4150 h4         1 RE4       0.018100
     24 H8          20.2060    -1.5460    59.4570 h4         1 RE4       0.011100
     25 H9          22.8090    -1.2420    60.9210 hn         1 RE4       0.437800
     26 H10         27.5310     0.3020    58.2720 hc         1 RE4       0.052700
     27 H11         28.1180     0.6540    59.8880 hc         1 RE4       0.052700
     28 H12         27.4070    -0.9260    59.5360 hc         1 RE4       0.052700
     29 H13         25.1200    -1.2000    60.2610 ha         1 RE4       0.145000
@<TRIPOS>BOND
     1     1     4 ar  
     2     1     7 1   
     3     1    14 ar  
     4     2     3 1   
     5     2    10 1   
     6     2    17 1   
     7     2    18 1   
     8     3     5 ar  
     9     3     9 ar  
    10     4    12 ar  
    11     5     6 ar  
    12     5    19 1   
    13     6     8 ar  
    14     6    20 1   
    15     7    21 1   
    16     7    22 1   
    17     8    11 ar  
    18     8    23 1   
    19     9    11 ar  
    20     9    24 1   
    21    10    15 1   
    22    10    25 1   
    23    12    13 1   
    24    12    16 ar  
    25    13    26 1   
    26    13    27 1   
    27    13    28 1   
    28    14    15 ar  
    29    15    16 ar  
    30    16    29 1   
@<TRIPOS>SUBSTRUCTURE
     1 RE4         1 TEMP              0 ****  ****    0 ROOT
