@<TRIPOS>MOLECULE
RE5
   46    47     1     0     0
SMALL
No Charge or Current Charge


@<TRIPOS>ATOM
      1 C04         17.1530    27.1750   171.7810 c3         1 RE5       0.113500
      2 C05         17.5990    28.1990   170.6410 c          1 RE5       0.746000
      3 C08         16.0590    27.7810   172.7090 c3         1 RE5      -0.040400
      4 C09         14.7270    28.1180   171.9880 c3         1 RE5      -0.182400
      5 C10         13.7310    28.7610   172.9700 c          1 RE5       0.716000
      6 C13         18.7100    24.3720   171.2210 c3         1 RE5      -0.185400
      7 C15         16.9850    22.6160   171.4730 c3         1 RE5       0.183300
      8 C16         16.2230    23.0350   170.1920 c3         1 RE5      -0.131100
      9 C17         16.0480    22.0370   172.5680 c3         1 RE5       0.089600
     10 C19         13.7830    23.1030   172.5800 ca         1 RE5       0.112500
     11 C21         11.8310    22.8150   171.4260 ca         1 RE5       0.161900
     12 C23         11.9550    24.6150   172.8340 ca         1 RE5       0.452900
     13 C25         13.2630    24.2210   173.1850 ca         1 RE5      -0.062600
     14 C27         15.2560    24.0370   173.9860 cc         1 RE5       0.406700
     15 N03         18.2570    26.6240   172.6380 n7         1 RE5      -0.937500
     16 N18         15.0500    22.9970   173.0800 na         1 RE5      -0.271300
     17 N20         13.0830    22.3720   171.6900 nb         1 RE5      -0.258000
     18 N22         11.2300    23.9100   171.9520 nb         1 RE5      -0.358000
     19 N26         14.1630    24.8130   174.0810 nd         1 RE5      -0.505100
     20 O01         20.2890    26.6980   171.0490 o          1 RE5      -0.838000
     21 O06         17.9850    29.3220   170.9540 o          1 RE5      -0.763500
     22 O07         17.4840    27.8510   169.4700 o          1 RE5      -0.763500
     23 O11         12.9630    28.0330   173.5820 o          1 RE5      -0.774500
     24 O12         13.7590    29.9740   173.1100 o          1 RE5      -0.774500
     25 O14         17.6620    23.7670   172.0340 os         1 RE5      -0.452000
     26 O28         20.3990    25.4020   173.1940 o          1 RE5      -0.838000
     27 P02         19.5720    25.8310   172.0290 p5         1 RE5       1.366300
     28 H1          16.6840    26.3270   171.2630 h1         1 RE5      -0.000300
     29 H2          15.8420    27.0740   173.5190 hc         1 RE5       0.014700
     30 H3          16.4510    28.6870   173.1870 hc         1 RE5       0.014700
     31 H4          14.9810    28.8310   171.1960 hc         1 RE5       0.033200
     32 H5          14.3360    27.1630   171.6160 hc         1 RE5       0.033200
     33 H6          18.3020    24.7530   170.2780 h1         1 RE5       0.009700
     34 H7          19.4830    23.6320   170.9820 h1         1 RE5       0.009700
     35 H8          17.7150    21.8400   171.2080 h1         1 RE5      -0.014300
     36 H9          15.5480    22.2330   169.8720 hc         1 RE5       0.062033
     37 H10         15.6260    23.9370   170.3680 hc         1 RE5       0.062033
     38 H11         16.9160    23.2280   169.3670 hc         1 RE5       0.062033
     39 H12         15.5280    21.1570   172.1680 h1         1 RE5       0.034200
     40 H13         16.6600    21.6950   173.4120 h1         1 RE5       0.034200
     41 H15         16.1960    24.1790   174.5070 h5         1 RE5       0.058800
     42 H16         17.8720    25.8400   173.1570 hn         1 RE5       0.391000
     43 H17         10.5300    26.0420   172.8120 hn         1 RE5       0.519500
     44 H18         11.9970    26.5030   173.5610 hn         1 RE5       0.519500
     45 N24         11.3560    25.7350   173.3130 nv         1 RE5      -1.054900
     46 H14         11.2500    22.2370   170.7100 h5         1 RE5       0.000100
@<TRIPOS>BOND
     1     1     2 1   
     2     1     3 1   
     3     1    15 1   
     4     1    28 1   
     5     2    21 1   
     6     2    22 1   
     7     3     4 1   
     8     3    29 1   
     9     3    30 1   
    10     4     5 1   
    11     4    31 1   
    12     4    32 1   
    13     5    23 1   
    14     5    24 1   
    15     6    25 1   
    16     6    27 1   
    17     6    33 1   
    18     6    34 1   
    19     7     8 1   
    20     7     9 1   
    21     7    25 1   
    22     7    35 1   
    23     8    36 1   
    24     8    37 1   
    25     8    38 1   
    26     9    16 1   
    27     9    39 1   
    28     9    40 1   
    29    10    13 ar  
    30    10    16 1   
    31    10    17 ar  
    32    11    17 ar  
    33    11    18 ar  
    34    11    46 1   
    35    12    13 ar  
    36    12    18 ar  
    37    12    45 1   
    38    13    19 1   
    39    14    16 1   
    40    14    19 2   
    41    14    41 1   
    42    15    27 1   
    43    15    42 1   
    44    20    27 1   
    45    26    27 1   
    46    43    45 1   
    47    44    45 1   
@<TRIPOS>SUBSTRUCTURE
     1 RE5         1 TEMP              0 ****  ****    0 ROOT
