@<TRIPOS>MOLECULE
RE5
   46    47     1     0     0
SMALL
bcc


@<TRIPOS>ATOM
      1 C04         16.7430    26.9530   171.8070 c3         1 RE5       0.113500
      2 C05         16.5330    27.6970   170.4680 c          1 RE5       0.956600
      3 C08         16.0660    27.7380   172.9350 c3         1 RE5      -0.040400
      4 C09         14.5790    27.9980   172.7160 c3         1 RE5      -0.182400
      5 C10         13.8740    28.5570   173.9590 c          1 RE5       0.926600
      6 C13         19.0310    24.1100   172.0780 c3         1 RE5      -0.050800
      7 C15         17.1550    22.6880   171.5380 c3         1 RE5       0.160100
      8 C16         16.6810    23.1900   170.1840 c3         1 RE5      -0.131100
      9 C17         16.0370    22.0480   172.3590 c3         1 RE5       0.060300
     10 C19         13.8720    23.3190   172.1460 ca         1 RE5       0.440800
     11 C21         12.1770    23.2790   170.7510 ca         1 RE5       0.687900
     12 C23         12.1330    24.9260   172.3660 ca         1 RE5       0.781200
     13 C25         13.3370    24.3840   172.8590 ca         1 RE5      -0.193200
     14 C27         15.1380    23.8690   173.8330 cc         1 RE5       0.406700
     15 N03         18.1480    26.7970   172.1490 n7         1 RE5      -0.882300
     16 N18         15.0370    23.0050   172.7800 na         1 RE5      -0.242000
     17 N20         13.3300    22.7250   171.0820 nb         1 RE5      -0.784000
     18 N22         11.5660    24.3180   171.3120 nb         1 RE5      -0.884000
     19 N26         14.1430    24.7030   173.9220 nd         1 RE5      -0.505100
     20 O01         18.7760    25.7350   169.8540 o          1 RE5      -0.838000
     21 O06         17.1770    28.7490   170.2900 o          1 RE5      -0.868800
     22 O07         15.6770    27.2120   169.6950 o          1 RE5      -0.868800
     23 O11         12.7640    28.0510   174.2790 o          1 RE5      -0.879800
     24 O12         14.4330    29.4890   174.5610 o          1 RE5      -0.879800
     25 O14         17.6990    23.7050   172.3390 os         1 RE5      -0.405600
     26 O28         20.6280    26.2000   171.6430 o          1 RE5      -0.838000
     27 P02         19.2160    25.7880   171.2970 p5         1 RE5       1.208500
     28 H1          16.2300    25.9850   171.7350 h1         1 RE5      -0.000300
     29 H2          16.1950    27.1700   173.8640 hc         1 RE5       0.014700
     30 H3          16.5950    28.6830   173.0760 hc         1 RE5       0.014700
     31 H4          14.4520    28.7240   171.9050 hc         1 RE5       0.033200
     32 H5          14.0920    27.0810   172.3810 hc         1 RE5       0.033200
     33 H6          19.5590    23.3670   171.4640 h1         1 RE5       0.009700
     34 H7          19.5530    24.1350   173.0410 h1         1 RE5       0.009700
     35 H8          17.8980    21.8940   171.3730 h1         1 RE5      -0.014300
     36 H9          16.2120    22.3820   169.6230 hc         1 RE5       0.062033
     37 H10         15.9600    24.0030   170.2860 hc         1 RE5       0.062033
     38 H11         17.5180    23.5720   169.6030 hc         1 RE5       0.062033
     39 H12         15.5430    21.2710   171.7760 h1         1 RE5       0.034200
     40 H13         16.4530    21.5760   173.2500 h1         1 RE5       0.034200
     41 H15         15.9740    23.8220   174.5130 h5         1 RE5       0.058800
     42 H16         18.3120    26.8080   173.1470 hn         1 RE5       0.335800
     43 H17         10.7380    26.3510   172.3990 hn         1 RE5       0.464300
     44 H18         12.0610    26.6850   173.4680 hn         1 RE5       0.464300
     45 N24         11.5350    25.9940   172.9010 nv         1 RE5      -0.944500
     46 H14         11.6610    22.8370   169.9040 h5         1 RE5       0.000100
@<TRIPOS>BOND
     1     1     2 1   
     2     1     3 1   
     3     1    15 1   
     4     1    28 1   
     5     2    21 1   
     6     2    22 1   
     7     3     4 1   
     8     3    29 1   
     9     3    30 1   
    10     4     5 1   
    11     4    31 1   
    12     4    32 1   
    13     5    23 1   
    14     5    24 1   
    15     6    25 1   
    16     6    27 1   
    17     6    33 1   
    18     6    34 1   
    19     7     8 1   
    20     7     9 1   
    21     7    25 1   
    22     7    35 1   
    23     8    36 1   
    24     8    37 1   
    25     8    38 1   
    26     9    16 1   
    27     9    39 1   
    28     9    40 1   
    29    10    13 ar  
    30    10    16 1   
    31    10    17 ar  
    32    11    17 ar  
    33    11    18 ar  
    34    11    46 1   
    35    12    13 ar  
    36    12    18 ar  
    37    12    45 1   
    38    13    19 1   
    39    14    16 1   
    40    14    19 2   
    41    14    41 1   
    42    15    27 1   
    43    15    42 1   
    44    20    27 1   
    45    26    27 1   
    46    43    45 1   
    47    44    45 1   
@<TRIPOS>SUBSTRUCTURE
     1 RE5         1 TEMP              0 ****  ****    0 ROOT
