@<TRIPOS>MOLECULE
RE6
   25    24     1     0     0
SMALL
No Charge or Current Charge


@<TRIPOS>ATOM
      1 C02        180.5780   227.1140   195.6900 c          1 RE6       0.707000
      2 C75        181.9910   226.5590   195.9530 c3         1 RE6      -0.197400
      3 C76        181.9530   225.5130   197.0940 c3         1 RE6      -0.059400
      4 C77        183.3430   224.9050   197.4060 c3         1 RE6      -0.076400
      5 C78        183.3930   223.9540   198.6370 c3         1 RE6      -0.061700
      6 C79        184.8630   223.5950   198.9700 c3         1 RE6      -0.084100
      7 C80        182.5080   222.6850   198.4510 c3         1 RE6      -0.075400
      8 C81        182.4580   221.7420   199.6720 c3         1 RE6      -0.086100
      9 O01        179.8680   226.5290   194.8870 o          1 RE6      -0.745500
     10 O1         180.2120   228.0880   196.3300 o          1 RE6      -0.745500
     11 H1         182.3640   226.0260   195.0700 hc         1 RE6       0.016200
     12 H2         182.6570   227.3590   196.3000 hc         1 RE6       0.016200
     13 H3         181.5530   225.9830   198.0010 hc         1 RE6       0.038700
     14 H4         181.2550   224.7170   196.8100 hc         1 RE6       0.038700
     15 H5         183.7070   224.3690   196.5200 hc         1 RE6       0.025700
     16 H6         184.0430   225.7320   197.5770 hc         1 RE6       0.025700
     17 H7         182.9960   224.5110   199.4950 hc         1 RE6       0.041700
     18 H8         184.9350   223.0550   199.9210 hc         1 RE6       0.022033
     19 H9         185.3010   222.9700   198.1820 hc         1 RE6       0.022033
     20 H10        185.4720   224.5020   199.0650 hc         1 RE6       0.022033
     21 H11        181.4770   222.9880   198.2350 hc         1 RE6       0.044200
     22 H12        182.8560   222.1200   197.5770 hc         1 RE6       0.044200
     23 H13        181.7230   220.9450   199.5040 hc         1 RE6       0.022033
     24 H14        183.4300   221.2660   199.8480 hc         1 RE6       0.022033
     25 H15        182.1660   222.2900   200.5760 hc         1 RE6       0.022033
@<TRIPOS>BOND
     1     1     2 1   
     2     1     9 1   
     3     1    10 1   
     4     2     3 1   
     5     2    11 1   
     6     2    12 1   
     7     3     4 1   
     8     3    13 1   
     9     3    14 1   
    10     4     5 1   
    11     4    15 1   
    12     4    16 1   
    13     5     6 1   
    14     5     7 1   
    15     5    17 1   
    16     6    18 1   
    17     6    19 1   
    18     6    20 1   
    19     7     8 1   
    20     7    21 1   
    21     7    22 1   
    22     8    23 1   
    23     8    24 1   
    24     8    25 1   
@<TRIPOS>SUBSTRUCTURE
     1 RE6         1 TEMP              0 ****  ****    0 ROOT
