@<TRIPOS>MOLECULE
RE6
   25    24     1     0     0
SMALL
abcg2


@<TRIPOS>ATOM
      1 C02        180.5970   227.1630   195.7140 c          1 RE6       0.707000
      2 C75        181.9620   226.5360   196.0510 c3         1 RE6      -0.197400
      3 C76        181.9300   225.4900   197.1660 c3         1 RE6      -0.059400
      4 C77        183.3090   224.8970   197.4500 c3         1 RE6      -0.076400
      5 C78        183.3760   223.9310   198.6420 c3         1 RE6      -0.061700
      6 C79        184.8360   223.6250   198.9880 c3         1 RE6      -0.084100
      7 C80        182.5760   222.6470   198.3830 c3         1 RE6      -0.075400
      8 C81        182.4540   221.7200   199.5920 c3         1 RE6      -0.086100
      9 O01        179.6090   226.3870   195.6240 o          1 RE6      -0.745500
     10 O1         180.5680   228.4100   195.5290 o          1 RE6      -0.745500
     11 H1         182.3390   226.0660   195.1340 hc         1 RE6       0.016200
     12 H2         182.6630   227.3350   196.3050 hc         1 RE6       0.016200
     13 H3         181.5460   225.9520   198.0830 hc         1 RE6       0.038700
     14 H4         181.2210   224.7080   196.8930 hc         1 RE6       0.038700
     15 H5         183.6760   224.3800   196.5540 hc         1 RE6       0.025700
     16 H6         184.0090   225.7190   197.6330 hc         1 RE6       0.025700
     17 H7         182.9230   224.4370   199.5050 hc         1 RE6       0.041700
     18 H8         184.9230   223.0000   199.8780 hc         1 RE6       0.022033
     19 H9         185.3240   223.1010   198.1610 hc         1 RE6       0.022033
     20 H10        185.3920   224.5480   199.1740 hc         1 RE6       0.022033
     21 H11        181.5710   222.9140   198.0470 hc         1 RE6       0.044200
     22 H12        183.0450   222.1080   197.5510 hc         1 RE6       0.044200
     23 H13        181.8100   220.8670   199.3670 hc         1 RE6       0.022033
     24 H14        183.4230   221.3280   199.9050 hc         1 RE6       0.022033
     25 H15        182.0190   222.2500   200.4440 hc         1 RE6       0.022033
@<TRIPOS>BOND
     1     1     2 1   
     2     1     9 1   
     3     1    10 1   
     4     2     3 1   
     5     2    11 1   
     6     2    12 1   
     7     3     4 1   
     8     3    13 1   
     9     3    14 1   
    10     4     5 1   
    11     4    15 1   
    12     4    16 1   
    13     5     6 1   
    14     5     7 1   
    15     5    17 1   
    16     6    18 1   
    17     6    19 1   
    18     6    20 1   
    19     7     8 1   
    20     7    21 1   
    21     7    22 1   
    22     8    23 1   
    23     8    24 1   
    24     8    25 1   
@<TRIPOS>SUBSTRUCTURE
     1 RE6         1 TEMP              0 ****  ****    0 ROOT
