@<TRIPOS>MOLECULE
RE7
   33    34     1     0     0
SMALL
abcg2


@<TRIPOS>ATOM
      1 C4          15.6110     2.1740    47.7620 ca         1 RE7      -0.155500
      2 C5          15.1340     3.1310    48.6350 ca         1 RE7       0.170000
      3 C6          15.6640     3.2970    49.9010 ca         1 RE7      -0.155500
      4 N1          16.1690    -1.7890    53.4570 na         1 RE7       0.126800
      5 C7          16.7100     2.4760    50.2970 ca         1 RE7      -0.073000
      6 C8          17.2940    -0.6810    51.5660 c3         1 RE7       0.139800
      7 N2          16.4360    -3.0890    53.3630 nc         1 RE7      -0.532800
      8 C9          17.1660    -0.8130    53.0780 c3         1 RE7       0.084600
      9 C10         14.9040    -1.5540    53.8500 cc         1 RE7      -0.169000
     10 C11         14.3090    -2.7800    54.0350 cd         1 RE7      -0.232000
     11 C12         15.3190    -3.7010    53.7140 cd         1 RE7       0.238900
     12 F           14.1190     3.9230    48.2440 f          1 RE7      -0.181000
     13 C3          16.6550     1.3610    48.1820 ca         1 RE7      -0.073000
     14 C2          17.2210     1.5010    49.4450 ca         1 RE7      -0.102300
     15 C1          18.4010     0.6450    49.8520 c3         1 RE7       0.229800
     16 C           19.7050     1.3960    49.5990 c3         1 RE7      -0.094100
     17 N           18.3210     0.2900    51.2570 n7         1 RE7      -0.877400
     18 H1          15.1780     2.0600    46.7770 ha         1 RE7       0.131500
     19 H2          15.2650     4.0520    50.5670 ha         1 RE7       0.131500
     20 H3          17.1280     2.5910    51.2890 ha         1 RE7       0.122500
     21 H4          16.3410    -0.3320    51.1610 h1         1 RE7       0.050200
     22 H5          17.4860    -1.6690    51.1220 h1         1 RE7       0.050200
     23 H6          18.1180    -1.1090    53.5210 h1         1 RE7       0.067200
     24 H7          16.8820     0.1450    53.5110 h1         1 RE7       0.067200
     25 H8          14.5270    -0.5510    53.9740 h4         1 RE7       0.153000
     26 H9          13.3010    -2.9800    54.3580 ha         1 RE7       0.145000
     27 H10         15.2720    -4.7800    53.7310 h4         1 RE7       0.035100
     28 H11         17.0370     0.6030    47.5070 ha         1 RE7       0.122500
     29 H12         18.3980    -0.2480    49.2050 h1         1 RE7       0.028700
     30 H13         20.5660     0.7640    49.8280 hc         1 RE7       0.043700
     31 H14         19.7830     1.7010    48.5560 hc         1 RE7       0.043700
     32 H15         19.7600     2.2890    50.2230 hc         1 RE7       0.043700
     33 H16         19.2200    -0.0690    51.5550 hn         1 RE7       0.418000
@<TRIPOS>BOND
     1     1     2 ar  
     2     1    13 ar  
     3     1    18 1   
     4     2     3 ar  
     5     2    12 1   
     6     3     5 ar  
     7     3    19 1   
     8     4     7 1   
     9     4     8 1   
    10     4     9 1   
    11     5    14 ar  
    12     5    20 1   
    13     6     8 1   
    14     6    17 1   
    15     6    21 1   
    16     6    22 1   
    17     7    11 2   
    18     8    23 1   
    19     8    24 1   
    20     9    10 2   
    21     9    25 1   
    22    10    11 1   
    23    10    26 1   
    24    11    27 1   
    25    13    14 ar  
    26    13    28 1   
    27    14    15 1   
    28    15    16 1   
    29    15    17 1   
    30    15    29 1   
    31    16    30 1   
    32    16    31 1   
    33    16    32 1   
    34    17    33 1   
@<TRIPOS>SUBSTRUCTURE
     1 RE7         1 TEMP              0 ****  ****    0 ROOT
