@<TRIPOS>MOLECULE
RE7
   33    34     1     0     0
SMALL
No Charge or Current Charge


@<TRIPOS>ATOM
      1 C4          15.3620     1.8490    47.9830 ca         1 RE7      -0.155500
      2 C5          14.9830     2.9950    48.6970 ca         1 RE7       0.170000
      3 C6          15.7450     3.4320    49.7910 ca         1 RE7      -0.155500
      4 N1          16.1540    -1.9040    53.3710 na         1 RE7       0.126800
      5 C7          16.8940     2.7170    50.1740 ca         1 RE7      -0.073000
      6 C8          17.3160    -0.6260    51.5520 c3         1 RE7       0.139800
      7 N2          16.3460    -3.2730    53.4300 nc         1 RE7      -0.532800
      8 C9          17.2770    -1.0100    53.0450 c3         1 RE7       0.084600
      9 C10         14.8440    -1.5120    53.6360 cc         1 RE7      -0.169000
     10 C11         14.2000    -2.6920    53.8700 cd         1 RE7      -0.232000
     11 C12         15.1450    -3.7270    53.7350 cd         1 RE7       0.238900
     12 F           13.8780     3.6810    48.3310 f          1 RE7      -0.181000
     13 C3          16.5110     1.1330    48.3640 ca         1 RE7      -0.073000
     14 C2          17.2870     1.5630    49.4610 ca         1 RE7      -0.102300
     15 C1          18.5340     0.7760    49.8710 c3         1 RE7       0.229800
     16 C           19.8180     1.6130    49.7130 c3         1 RE7      -0.094100
     17 N           18.4350     0.3060    51.2660 n7         1 RE7      -0.877400
     18 H1          14.7650     1.5160    47.1370 ha         1 RE7       0.131500
     19 H2          15.4440     4.3190    50.3420 ha         1 RE7       0.131500
     20 H3          17.4770     3.0550    51.0280 ha         1 RE7       0.122500
     21 H4          16.3530    -0.1650    51.2920 h1         1 RE7       0.050200
     22 H5          17.4150    -1.5420    50.9530 h1         1 RE7       0.050200
     23 H6          18.2160    -1.5030    53.3230 h1         1 RE7       0.067200
     24 H7          17.1810    -0.1010    53.6500 h1         1 RE7       0.067200
     25 H8          14.5100    -0.4810    53.6340 h4         1 RE7       0.153000
     26 H9          13.1510    -2.8160    54.1160 ha         1 RE7       0.145000
     27 H10         14.9900    -4.7930    53.8490 h4         1 RE7       0.035100
     28 H11         16.7980     0.2440    47.8060 ha         1 RE7       0.122500
     29 H12         18.6300    -0.0930    49.2060 h1         1 RE7       0.028700
     30 H13         20.7040     1.0100    49.9420 hc         1 RE7       0.043700
     31 H14         19.9110     1.9720    48.6810 hc         1 RE7       0.043700
     32 H15         19.8100     2.4830    50.3790 hc         1 RE7       0.043700
     33 H16         19.3170    -0.1700    51.4940 hn         1 RE7       0.418000
@<TRIPOS>BOND
     1     1     2 ar  
     2     1    13 ar  
     3     1    18 1   
     4     2     3 ar  
     5     2    12 1   
     6     3     5 ar  
     7     3    19 1   
     8     4     7 1   
     9     4     8 1   
    10     4     9 1   
    11     5    14 ar  
    12     5    20 1   
    13     6     8 1   
    14     6    17 1   
    15     6    21 1   
    16     6    22 1   
    17     7    11 2   
    18     8    23 1   
    19     8    24 1   
    20     9    10 2   
    21     9    25 1   
    22    10    11 1   
    23    10    26 1   
    24    11    27 1   
    25    13    14 ar  
    26    13    28 1   
    27    14    15 1   
    28    15    16 1   
    29    15    17 1   
    30    15    29 1   
    31    16    30 1   
    32    16    31 1   
    33    16    32 1   
    34    17    33 1   
@<TRIPOS>SUBSTRUCTURE
     1 RE7         1 TEMP              0 ****  ****    0 ROOT
