@<TRIPOS>MOLECULE
RE8
   40    43     1     0     0
SMALL
No Charge or Current Charge


@<TRIPOS>ATOM
      1 OB4         -5.5210     1.0570     0.8670 o          1 RE8      -0.685867
      2 SB          -4.8880     1.4160    -0.4120 s6         1 RE8       1.251100
      3 OB2         -5.3040     0.6090    -1.5690 o          1 RE8      -0.685867
      4 OB3         -4.7280     2.8560    -0.6620 o          1 RE8      -0.685867
      5 C14         -3.1320     0.8270    -0.1460 ca         1 RE8      -0.166500
      6 C13         -2.0840     1.7730    -0.2200 ca         1 RE8      -0.060000
      7 C12         -0.7500     1.3930    -0.0340 ca         1 RE8      -0.084000
      8 C15         -2.8060    -0.5360     0.1320 ca         1 RE8       0.031000
      9 C20         -1.4440    -0.9140     0.3230 ca         1 RE8      -0.023000
     10 C19         -1.1260    -2.2640     0.6120 ca         1 RE8      -0.114000
     11 C18         -2.1300    -3.2360     0.7030 ca         1 RE8      -0.114000
     12 C17         -3.4660    -2.8750     0.5100 ca         1 RE8      -0.134000
     13 C16         -3.8030    -1.5410     0.2290 ca         1 RE8      -0.057000
     14 C11         -0.4150     0.0570     0.2280 ca         1 RE8       0.092400
     15 N2           0.9480    -0.2770     0.4030 ne         1 RE8      -0.270400
     16 N1           1.6640    -0.2590    -0.6420 nf         1 RE8      -0.187400
     17 C1           3.0340    -0.6020    -0.4620 ca         1 RE8      -0.035600
     18 C10          4.0110     0.3800    -0.1480 ca         1 RE8       0.046000
     19 C9           3.6690     1.7450     0.0040 ca         1 RE8      -0.091000
     20 C8           4.6530     2.6980     0.3160 ca         1 RE8      -0.105000
     21 C7           5.9890     2.3020     0.4800 ca         1 RE8      -0.127000
     22 C6           6.3440     0.9530     0.3310 ca         1 RE8      -0.091000
     23 C5           5.3640    -0.0080     0.0170 ca         1 RE8      -0.088000
     24 C4           5.7370    -1.3560    -0.1330 ca         1 RE8      -0.049000
     25 C3           4.7710    -2.3220    -0.4510 ca         1 RE8      -0.158000
     26 C2           3.4310    -1.9490    -0.6160 ca         1 RE8       0.198100
     27 OA1          2.5090    -2.9030    -0.9320 oh         1 RE8      -0.546100
     28 H1          -2.2920     2.8210    -0.4260 ha         1 RE8       0.145000
     29 H2           0.0320     2.1450    -0.0990 ha         1 RE8       0.115000
     30 H3          -0.0970    -2.5740     0.7760 ha         1 RE8       0.102000
     31 H4          -1.8700    -4.2690     0.9260 ha         1 RE8       0.096000
     32 H5          -4.2480    -3.6280     0.5800 ha         1 RE8       0.104000
     33 H6          -4.8550    -1.3170     0.0920 ha         1 RE8       0.151000
     34 H9           2.6420     2.0780    -0.1180 ha         1 RE8       0.139000
     35 H10          4.3780     3.7440     0.4310 ha         1 RE8       0.110000
     36 H11          6.7500     3.0410     0.7220 ha         1 RE8       0.106000
     37 H12          7.3830     0.6550     0.4580 ha         1 RE8       0.104000
     38 H13          6.7760    -1.6560    -0.0070 ha         1 RE8       0.108000
     39 H14          5.0630    -3.3620    -0.5710 ha         1 RE8       0.126000
     40 H15          1.6430    -2.4400    -0.9840 ho         1 RE8       0.529000
@<TRIPOS>BOND
     1     1     2 1   
     2     2     3 1   
     3     2     4 1   
     4     2     5 1   
     5     5     6 ar  
     6     5     8 ar  
     7     6     7 ar  
     8     6    28 1   
     9     7    14 ar  
    10     7    29 1   
    11     8     9 ar  
    12     8    13 ar  
    13     9    10 ar  
    14     9    14 ar  
    15    10    11 ar  
    16    10    30 1   
    17    11    12 ar  
    18    11    31 1   
    19    12    13 ar  
    20    12    32 1   
    21    13    33 1   
    22    14    15 1   
    23    15    16 2   
    24    16    17 1   
    25    17    18 ar  
    26    17    26 ar  
    27    18    19 ar  
    28    18    23 ar  
    29    19    20 ar  
    30    19    34 1   
    31    20    21 ar  
    32    20    35 1   
    33    21    22 ar  
    34    21    36 1   
    35    22    23 ar  
    36    22    37 1   
    37    23    24 ar  
    38    24    25 ar  
    39    24    38 1   
    40    25    26 ar  
    41    25    39 1   
    42    26    27 1   
    43    27    40 1   
@<TRIPOS>SUBSTRUCTURE
     1 RE8         1 TEMP              0 ****  ****    0 ROOT
