@<TRIPOS>MOLECULE
RE8
   40    43     1     0     0
SMALL
abcg2


@<TRIPOS>ATOM
      1 OB4         -5.4400     0.7610     1.3540 o          1 RE8      -0.685867
      2 SB          -4.7610     1.4460     0.2410 s6         1 RE8       1.251100
      3 OB2         -5.3400     1.1430    -1.0790 o          1 RE8      -0.685867
      4 OB3         -4.5750     2.8870     0.4730 o          1 RE8      -0.685867
      5 C14         -3.1030     0.7460     0.2040 ca         1 RE8      -0.166500
      6 C13         -2.0430     1.5860     0.4250 ca         1 RE8      -0.060000
      7 C12         -0.7270     1.1080     0.4330 ca         1 RE8      -0.084000
      8 C15         -2.8820    -0.6410    -0.0350 ca         1 RE8       0.031000
      9 C20         -1.5430    -1.1290    -0.0410 ca         1 RE8      -0.023000
     10 C19         -1.3080    -2.4980    -0.3070 ca         1 RE8      -0.114000
     11 C18         -2.3440    -3.3580    -0.5380 ca         1 RE8      -0.114000
     12 C17         -3.6680    -2.8850    -0.5150 ca         1 RE8      -0.134000
     13 C16         -3.9300    -1.5650    -0.2740 ca         1 RE8      -0.057000
     14 C11         -0.4700    -0.2210     0.2040 ca         1 RE8       0.092400
     15 N2           0.8220    -0.7570     0.2620 ne         1 RE8      -0.270400
     16 N1           1.7570     0.0520     0.0630 nf         1 RE8      -0.187400
     17 C1           3.0430    -0.4170     0.1910 ca         1 RE8      -0.035600
     18 C10          4.0900     0.5240    -0.0860 ca         1 RE8       0.046000
     19 C9           3.8290     1.8520    -0.4850 ca         1 RE8      -0.091000
     20 C8           4.8610     2.7210    -0.7370 ca         1 RE8      -0.105000
     21 C7           6.2000     2.3130    -0.6050 ca         1 RE8      -0.127000
     22 C6           6.4790     1.0290    -0.2210 ca         1 RE8      -0.091000
     23 C5           5.4380     0.1150     0.0450 ca         1 RE8      -0.088000
     24 C4           5.7150    -1.2170     0.4450 ca         1 RE8      -0.049000
     25 C3           4.7210    -2.1090     0.7070 ca         1 RE8      -0.158000
     26 C2           3.3670    -1.7240     0.5830 ca         1 RE8       0.198100
     27 OA1          2.4460    -2.6310     0.8600 oh         1 RE8      -0.546100
     28 H1          -2.2130     2.6370     0.6110 ha         1 RE8       0.145000
     29 H2           0.0860     1.7900     0.6420 ha         1 RE8       0.115000
     30 H3          -0.2940    -2.8690    -0.3430 ha         1 RE8       0.102000
     31 H4          -2.1460    -4.4020    -0.7400 ha         1 RE8       0.096000
     32 H5          -4.4860    -3.5700    -0.6950 ha         1 RE8       0.104000
     33 H6          -4.9570    -1.2340    -0.2720 ha         1 RE8       0.151000
     34 H9           2.8060     2.1850    -0.5950 ha         1 RE8       0.139000
     35 H10          4.6380     3.7360    -1.0420 ha         1 RE8       0.110000
     36 H11          7.0010     3.0110    -0.8070 ha         1 RE8       0.106000
     37 H12          7.5050     0.6970    -0.1140 ha         1 RE8       0.104000
     38 H13          6.7490    -1.5260     0.5450 ha         1 RE8       0.108000
     39 H14          4.9470    -3.1220     1.0140 ha         1 RE8       0.126000
     40 H15          1.5620    -2.2010     0.7340 ho         1 RE8       0.529000
@<TRIPOS>BOND
     1     1     2 1   
     2     2     3 1   
     3     2     4 1   
     4     2     5 1   
     5     5     6 ar  
     6     5     8 ar  
     7     6     7 ar  
     8     6    28 1   
     9     7    14 ar  
    10     7    29 1   
    11     8     9 ar  
    12     8    13 ar  
    13     9    10 ar  
    14     9    14 ar  
    15    10    11 ar  
    16    10    30 1   
    17    11    12 ar  
    18    11    31 1   
    19    12    13 ar  
    20    12    32 1   
    21    13    33 1   
    22    14    15 1   
    23    15    16 2   
    24    16    17 1   
    25    17    18 ar  
    26    17    26 ar  
    27    18    19 ar  
    28    18    23 ar  
    29    19    20 ar  
    30    19    34 1   
    31    20    21 ar  
    32    20    35 1   
    33    21    22 ar  
    34    21    36 1   
    35    22    23 ar  
    36    22    37 1   
    37    23    24 ar  
    38    24    25 ar  
    39    24    38 1   
    40    25    26 ar  
    41    25    39 1   
    42    26    27 1   
    43    27    40 1   
@<TRIPOS>SUBSTRUCTURE
     1 RE8         1 TEMP              0 ****  ****    0 ROOT
