@<TRIPOS>MOLECULE
RE9
   49    50     1     0     0
SMALL
abcg2


@<TRIPOS>ATOM
      1 C1          67.3970    41.9290    37.0750 c6         1 RE9       0.001200
      2 C2          67.5720    43.4440    36.8760 c6         1 RE9      -0.065400
      3 C3          69.0270    43.8560    36.6840 c6         1 RE9      -0.071400
      4 C4          69.6230    43.2030    35.4410 c6         1 RE9      -0.021200
      5 C5          69.2240    41.7670    35.3490 ce         1 RE9      -0.103200
      6 C6          69.8470    40.7920    34.4620 ce         1 RE9      -0.061200
      7 C7          69.2090    39.4330    34.7270 c5         1 RE9      -0.009800
      8 C8          68.0720    39.7500    35.7310 c5         1 RE9      -0.036200
      9 C9          68.2370    41.2020    36.0610 c2         1 RE9      -0.098400
     10 C10         68.6600    38.8320    33.4190 c3         1 RE9      -0.013200
     11 C11         68.0220    37.4920    33.5880 c2         1 RE9      -0.298200
     12 C12         68.4530    36.3830    32.9760 ce         1 RE9      -0.124000
     13 C13         67.8850    35.0400    33.1040 ce         1 RE9      -0.151200
     14 C14         68.4630    34.0490    32.4000 cf         1 RE9      -0.205200
     15 C15         68.0930    32.5860    32.2950 c          1 RE9       0.699200
     16 C16         65.9180    41.5690    36.9090 c3         1 RE9      -0.079100
     17 C17         67.8480    41.5170    38.4850 c3         1 RE9      -0.079100
     18 C18         70.8250    41.0370    33.5870 c2         1 RE9      -0.329000
     19 C19         70.2420    38.5000    35.3590 c3         1 RE9      -0.074100
     20 C20         66.6840    34.8830    33.9880 c3         1 RE9      -0.033900
     21 O1          67.5140    32.0310    33.2520 o          1 RE9      -0.723500
     22 O2          68.4310    32.0480    31.2190 o          1 RE9      -0.723500
     23 H21         66.9990    43.7540    35.9950 hc         1 RE9       0.036700
     24 H22         67.1350    43.9710    37.7290 hc         1 RE9       0.036700
     25 H31         69.1020    44.9430    36.6080 hc         1 RE9       0.035700
     26 H32         69.6130    43.5700    37.5620 hc         1 RE9       0.035700
     27 H41         69.2920    43.7310    34.5390 hc         1 RE9       0.043700
     28 H42         70.7130    43.2920    35.4500 hc         1 RE9       0.043700
     29 H81         67.0830    39.5650    35.2980 hc         1 RE9       0.057200
     30 H82         68.1220    39.1170    36.6240 hc         1 RE9       0.057200
     31 H101        67.9290    39.5370    33.0060 hc         1 RE9       0.035700
     32 H102        69.4700    38.7580    32.6870 hc         1 RE9       0.035700
     33 H11         67.1630    37.4420    34.2520 ha         1 RE9       0.165000
     34 H12         69.3160    36.4680    32.3180 ha         1 RE9       0.150000
     35 H14         69.3010    34.3370    31.7680 ha         1 RE9       0.141000
     36 H161        65.7350    40.5120    37.1120 hc         1 RE9       0.033700
     37 H162        65.3100    42.1480    37.6060 hc         1 RE9       0.033700
     38 H163        65.5660    41.7850    35.8980 hc         1 RE9       0.033700
     39 H171        67.7500    40.4400    38.6300 hc         1 RE9       0.033700
     40 H172        68.8890    41.7830    38.6690 hc         1 RE9       0.033700
     41 H173        67.2330    42.0110    39.2400 hc         1 RE9       0.033700
     42 H181        71.2430    42.0280    33.4650 ha         1 RE9       0.160500
     43 H182        71.2430    40.2570    32.9630 ha         1 RE9       0.160500
     44 H191        69.7970    37.5390    35.6230 hc         1 RE9       0.036700
     45 H192        71.0690    38.3110    34.6720 hc         1 RE9       0.036700
     46 H193        70.6540    38.9380    36.2700 hc         1 RE9       0.036700
     47 H201        66.3340    33.8580    34.0100 hc         1 RE9       0.031367
     48 H202        66.9120    35.1910    35.0120 hc         1 RE9       0.031367
     49 H203        65.8700    35.5270    33.6460 hc         1 RE9       0.031367
@<TRIPOS>BOND
     1     1     2 1   
     2     1     9 1   
     3     1    16 1   
     4     1    17 1   
     5     2     3 1   
     6     2    23 1   
     7     2    24 1   
     8     3     4 1   
     9     3    25 1   
    10     3    26 1   
    11     4     5 1   
    12     4    27 1   
    13     4    28 1   
    14     5     6 1   
    15     5     9 2   
    16     6     7 1   
    17     6    18 2   
    18     7     8 1   
    19     7    10 1   
    20     7    19 1   
    21     8     9 1   
    22     8    29 1   
    23     8    30 1   
    24    10    11 1   
    25    10    31 1   
    26    10    32 1   
    27    11    12 2   
    28    11    33 1   
    29    12    13 1   
    30    12    34 1   
    31    13    14 2   
    32    13    20 1   
    33    14    15 1   
    34    14    35 1   
    35    15    21 1   
    36    15    22 1   
    37    16    36 1   
    38    16    37 1   
    39    16    38 1   
    40    17    39 1   
    41    17    40 1   
    42    17    41 1   
    43    18    42 1   
    44    18    43 1   
    45    19    44 1   
    46    19    45 1   
    47    19    46 1   
    48    20    47 1   
    49    20    48 1   
    50    20    49 1   
@<TRIPOS>SUBSTRUCTURE
     1 RE9         1 TEMP              0 ****  ****    0 ROOT
