@<TRIPOS>MOLECULE
RE9
   49    50     1     0     0
SMALL
No Charge or Current Charge


@<TRIPOS>ATOM
      1 C1          67.4030    41.8410    37.1310 c6         1 RE9       0.001200
      2 C2          67.6330    43.3870    37.1060 c6         1 RE9      -0.065400
      3 C3          69.1260    43.7620    36.8990 c6         1 RE9      -0.071400
      4 C4          69.6680    43.2060    35.5560 c6         1 RE9      -0.021200
      5 C5          69.1790    41.7750    35.3020 ce         1 RE9      -0.103200
      6 C6          69.7750    40.9150    34.2920 ce         1 RE9      -0.061200
      7 C7          69.2090    39.4970    34.4740 c5         1 RE9      -0.009800
      8 C8          67.9850    39.7970    35.4350 c5         1 RE9      -0.036200
      9 C9          68.1930    41.1980    35.9910 c2         1 RE9      -0.098400
     10 C10         68.7050    38.9020    33.0970 c3         1 RE9      -0.013200
     11 C11         67.9900    37.5680    33.2210 c2         1 RE9      -0.298200
     12 C12         68.5770    36.3540    33.1160 ce         1 RE9      -0.124000
     13 C13         67.8980    35.0460    33.2260 ce         1 RE9      -0.151200
     14 C14         68.5130    33.9300    32.7120 cf         1 RE9      -0.205200
     15 C15         68.0490    32.5030    32.6840 c          1 RE9       0.699200
     16 C16         65.8860    41.5260    36.9800 c3         1 RE9      -0.079100
     17 C17         67.8920    41.2180    38.4730 c3         1 RE9      -0.079100
     18 C18         70.7180    41.3160    33.4110 c2         1 RE9      -0.329000
     19 C19         70.2880    38.6050    35.2050 c3         1 RE9      -0.074100
     20 C20         66.5710    35.0150    33.9860 c3         1 RE9      -0.033900
     21 O1          66.9500    32.1960    33.1160 o          1 RE9      -0.723500
     22 O2          68.8120    31.6900    32.1840 o          1 RE9      -0.723500
     23 H21         67.0460    43.8340    36.2910 hc         1 RE9       0.036700
     24 H22         67.2580    43.8410    38.0340 hc         1 RE9       0.036700
     25 H31         69.2450    44.8540    36.9210 hc         1 RE9       0.035700
     26 H32         69.7280    43.3730    37.7300 hc         1 RE9       0.035700
     27 H41         69.3330    43.8490    34.7310 hc         1 RE9       0.043700
     28 H42         70.7660    43.2440    35.5620 hc         1 RE9       0.043700
     29 H81         67.0410    39.7600    34.8810 hc         1 RE9       0.057200
     30 H82         67.9020    39.0540    36.2360 hc         1 RE9       0.057200
     31 H101        68.0350    39.6230    32.6120 hc         1 RE9       0.035700
     32 H102        69.5560    38.7920    32.4140 hc         1 RE9       0.035700
     33 H11         66.9180    37.6650    33.3930 ha         1 RE9       0.165000
     34 H12         69.6480    36.3120    32.9060 ha         1 RE9       0.150000
     35 H14         69.4780    34.0750    32.2310 ha         1 RE9       0.141000
     36 H161        65.6860    40.4490    37.0380 hc         1 RE9       0.033700
     37 H162        65.2990    42.0110    37.7700 hc         1 RE9       0.033700
     38 H163        65.5010    41.8810    36.0170 hc         1 RE9       0.033700
     39 H171        67.6860    40.1420    38.5140 hc         1 RE9       0.033700
     40 H172        68.9720    41.3440    38.6090 hc         1 RE9       0.033700
     41 H173        67.3930    41.6810    39.3340 hc         1 RE9       0.033700
     42 H181        71.0790    42.3430    33.3680 ha         1 RE9       0.160500
     43 H182        71.1600    40.6210    32.6980 ha         1 RE9       0.160500
     44 H191        69.8830    37.6180    35.4580 hc         1 RE9       0.036700
     45 H192        71.1680    38.4520    34.5690 hc         1 RE9       0.036700
     46 H193        70.6260    39.0740    36.1360 hc         1 RE9       0.036700
     47 H201        66.5060    34.1510    34.6550 hc         1 RE9       0.031367
     48 H202        66.4370    35.8870    34.6360 hc         1 RE9       0.031367
     49 H203        65.7190    34.9780    33.2970 hc         1 RE9       0.031367
@<TRIPOS>BOND
     1     1     2 1   
     2     1     9 1   
     3     1    16 1   
     4     1    17 1   
     5     2     3 1   
     6     2    23 1   
     7     2    24 1   
     8     3     4 1   
     9     3    25 1   
    10     3    26 1   
    11     4     5 1   
    12     4    27 1   
    13     4    28 1   
    14     5     6 1   
    15     5     9 2   
    16     6     7 1   
    17     6    18 2   
    18     7     8 1   
    19     7    10 1   
    20     7    19 1   
    21     8     9 1   
    22     8    29 1   
    23     8    30 1   
    24    10    11 1   
    25    10    31 1   
    26    10    32 1   
    27    11    12 2   
    28    11    33 1   
    29    12    13 1   
    30    12    34 1   
    31    13    14 2   
    32    13    20 1   
    33    14    15 1   
    34    14    35 1   
    35    15    21 1   
    36    15    22 1   
    37    16    36 1   
    38    16    37 1   
    39    16    38 1   
    40    17    39 1   
    41    17    40 1   
    42    17    41 1   
    43    18    42 1   
    44    18    43 1   
    45    19    44 1   
    46    19    45 1   
    47    19    46 1   
    48    20    47 1   
    49    20    48 1   
    50    20    49 1   
@<TRIPOS>SUBSTRUCTURE
     1 RE9         1 TEMP              0 ****  ****    0 ROOT
