@<TRIPOS>MOLECULE
REA
   49    49     1     0     0
SMALL
No Charge or Current Charge


@<TRIPOS>ATOM
      1 C1          21.8300    29.9540    16.8800 c6         1 REA      -0.001800
      2 C2          20.6280    30.6290    16.1570 c6         1 REA      -0.067400
      3 C3          20.1690    29.8230    14.9290 c6         1 REA      -0.070400
      4 C4          19.6670    28.4300    15.3570 c6         1 REA      -0.036200
      5 C5          20.5690    27.7150    16.3700 c2         1 REA      -0.120400
      6 C6          21.5000    28.4080    17.1180 ce         1 REA      -0.056200
      7 C7          22.3700    27.7680    18.1250 ce         1 REA      -0.218000
      8 C8          21.9720    26.8560    19.0580 cf         1 REA      -0.139000
      9 C9          22.8010    26.2270    20.0920 cf         1 REA      -0.148200
     10 C10         22.2080    25.5460    21.1180 ce         1 REA      -0.105000
     11 C11         22.8800    24.8580    22.2330 ce         1 REA      -0.282000
     12 C12         22.2250    24.1460    23.1940 cf         1 REA      -0.082000
     13 C13         22.8170    23.4500    24.3430 cf         1 REA      -0.165200
     14 C14         22.0110    23.0960    25.4000 ce         1 REA      -0.182200
     15 C15         22.3440    22.3950    26.6890 c          1 REA       0.698200
     16 C16         22.0730    30.7550    18.2260 c3         1 REA      -0.078600
     17 C17         23.1480    30.1560    16.0180 c3         1 REA      -0.078600
     18 C18         20.2390    26.2010    16.4370 c3         1 REA      -0.050900
     19 C19         24.3170    26.3080    19.9260 c3         1 REA      -0.035900
     20 C20         24.3020    23.0950    24.2610 c3         1 REA      -0.032900
     21 O1          23.4970    22.0920    26.9540 o          1 REA      -0.718000
     22 O2          21.4150    22.1780    27.4530 o          1 REA      -0.718000
     23 H21         19.7820    30.7270    16.8520 hc         1 REA       0.037700
     24 H22         20.8900    31.6520    15.8510 hc         1 REA       0.037700
     25 H31         19.3640    30.3600    14.4080 hc         1 REA       0.035200
     26 H32         20.9870    29.7220    14.2040 hc         1 REA       0.035200
     27 H41         18.6640    28.5290    15.7940 hc         1 REA       0.038700
     28 H42         19.5440    27.8160    14.4540 hc         1 REA       0.038700
     29 H7          23.4010    28.1160    18.1440 ha         1 REA       0.171000
     30 H8          20.9140    26.5880    19.0680 ha         1 REA       0.164000
     31 H10         21.1170    25.5100    21.1350 ha         1 REA       0.155000
     32 H11         23.9610    24.9570    22.2970 ha         1 REA       0.176000
     33 H12         21.1360    24.1040    23.1230 ha         1 REA       0.151000
     34 H14         20.9590    23.3650    25.3330 ha         1 REA       0.142000
     35 H161        22.9640    30.4020    18.7590 hc         1 REA       0.032367
     36 H162        22.2110    31.8260    18.0380 hc         1 REA       0.032367
     37 H163        21.2210    30.6470    18.9080 hc         1 REA       0.032367
     38 H171        24.0360    29.8040    16.5570 hc         1 REA       0.032367
     39 H172        23.1060    29.5960    15.0770 hc         1 REA       0.032367
     40 H173        23.3130    31.2120    15.7710 hc         1 REA       0.032367
     41 H181        21.0710    25.6180    16.8470 hc         1 REA       0.039033
     42 H182        19.3570    26.0190    17.0620 hc         1 REA       0.039033
     43 H183        20.0340    25.7850    15.4430 hc         1 REA       0.039033
     44 H191        24.8260    25.4230    20.3230 hc         1 REA       0.031700
     45 H192        24.6140    26.3660    18.8730 hc         1 REA       0.031700
     46 H193        24.7240    27.1870    20.4400 hc         1 REA       0.031700
     47 H201        24.5000    22.0860    24.6370 hc         1 REA       0.033033
     48 H202        24.6790    23.0940    23.2330 hc         1 REA       0.033033
     49 H203        24.9110    23.7990    24.8400 hc         1 REA       0.033033
@<TRIPOS>BOND
     1     1     2 1   
     2     1     6 1   
     3     1    16 1   
     4     1    17 1   
     5     2     3 1   
     6     2    23 1   
     7     2    24 1   
     8     3     4 1   
     9     3    25 1   
    10     3    26 1   
    11     4     5 1   
    12     4    27 1   
    13     4    28 1   
    14     5     6 2   
    15     5    18 1   
    16     6     7 1   
    17     7     8 2   
    18     7    29 1   
    19     8     9 1   
    20     8    30 1   
    21     9    10 2   
    22     9    19 1   
    23    10    11 1   
    24    10    31 1   
    25    11    12 2   
    26    11    32 1   
    27    12    13 1   
    28    12    33 1   
    29    13    14 2   
    30    13    20 1   
    31    14    15 1   
    32    14    34 1   
    33    15    21 1   
    34    15    22 1   
    35    16    35 1   
    36    16    36 1   
    37    16    37 1   
    38    17    38 1   
    39    17    39 1   
    40    17    40 1   
    41    18    41 1   
    42    18    42 1   
    43    18    43 1   
    44    19    44 1   
    45    19    45 1   
    46    19    46 1   
    47    20    47 1   
    48    20    48 1   
    49    20    49 1   
@<TRIPOS>SUBSTRUCTURE
     1 REA         1 TEMP              0 ****  ****    0 ROOT
