@<TRIPOS>MOLECULE
REA
   49    49     1     0     0
SMALL
bcc


@<TRIPOS>ATOM
      1 C1          21.8420    29.8600    16.9000 c6         1 REA      -0.001800
      2 C2          20.6780    30.5620    16.1930 c6         1 REA      -0.067400
      3 C3          20.1730    29.7850    14.9940 c6         1 REA      -0.070400
      4 C4          19.6660    28.4250    15.4420 c6         1 REA      -0.036200
      5 C5          20.5600    27.7310    16.4350 c2         1 REA      -0.120400
      6 C6          21.5300    28.3760    17.1120 ce         1 REA      -0.056200
      7 C7          22.4040    27.7100    18.0870 ce         1 REA      -0.168000
      8 C8          21.9950    26.9540    19.1180 cf         1 REA      -0.089000
      9 C9          22.8590    26.3110    20.0950 cf         1 REA      -0.148200
     10 C10         22.2740    25.6150    21.1000 ce         1 REA      -0.055000
     11 C11         22.9210    24.8930    22.1650 ce         1 REA      -0.232000
     12 C12         22.2280    24.2610    23.1340 cf         1 REA      -0.032000
     13 C13         22.7940    23.4920    24.2330 cf         1 REA      -0.165200
     14 C14         21.9480    22.9900    25.1540 ce         1 REA      -0.132200
     15 C15         22.2610    22.1990    26.4040 c          1 REA       0.908800
     16 C16         22.0490    30.5560    18.2510 c3         1 REA      -0.078600
     17 C17         23.1270    30.0080    16.0730 c3         1 REA      -0.078600
     18 C18         20.2500    26.2680    16.5810 c3         1 REA      -0.050900
     19 C19         24.3410    26.4580    19.9340 c3         1 REA      -0.035900
     20 C20         24.2870    23.3500    24.2830 c3         1 REA      -0.032900
     21 O1          23.1750    21.3510    26.3680 o          1 REA      -0.823300
     22 O2          21.5320    22.4710    27.3810 o          1 REA      -0.823300
     23 H21         19.8540    30.6870    16.9050 hc         1 REA       0.037700
     24 H22         20.9940    31.5690    15.9050 hc         1 REA       0.037700
     25 H31         19.3760    30.3350    14.4890 hc         1 REA       0.035200
     26 H32         20.9710    29.6570    14.2590 hc         1 REA       0.035200
     27 H41         18.6680    28.5260    15.8890 hc         1 REA       0.038700
     28 H42         19.5250    27.7720    14.5750 hc         1 REA       0.038700
     29 H7          23.4670    27.9130    17.9850 ha         1 REA       0.121000
     30 H8          20.9280    26.8060    19.2640 ha         1 REA       0.114000
     31 H10         21.1860    25.5900    21.1140 ha         1 REA       0.105000
     32 H11         24.0040    24.8580    22.1800 ha         1 REA       0.126000
     33 H12         21.1420    24.3180    23.1060 ha         1 REA       0.101000
     34 H14         20.8920    23.2190    25.0190 ha         1 REA       0.092000
     35 H161        22.9270    30.1850    18.7800 hc         1 REA       0.032367
     36 H162        22.1860    31.6290    18.0990 hc         1 REA       0.032367
     37 H163        21.1830    30.4180    18.9020 hc         1 REA       0.032367
     38 H171        23.9790    29.5330    16.5610 hc         1 REA       0.032367
     39 H172        23.0280    29.5640    15.0810 hc         1 REA       0.032367
     40 H173        23.3750    31.0640    15.9450 hc         1 REA       0.032367
     41 H181        21.0260    25.7090    17.0980 hc         1 REA       0.039033
     42 H182        19.3170    26.1190    17.1320 hc         1 REA       0.039033
     43 H183        20.1010    25.8170    15.5980 hc         1 REA       0.039033
     44 H191        24.9070    25.9240    20.6920 hc         1 REA       0.031700
     45 H192        24.6670    26.0880    18.9590 hc         1 REA       0.031700
     46 H193        24.6370    27.5090    19.9850 hc         1 REA       0.031700
     47 H201        24.6070    22.7670    25.1390 hc         1 REA       0.033033
     48 H202        24.6620    22.8620    23.3800 hc         1 REA       0.033033
     49 H203        24.7680    24.3290    24.3300 hc         1 REA       0.033033
@<TRIPOS>BOND
     1     1     2 1   
     2     1     6 1   
     3     1    16 1   
     4     1    17 1   
     5     2     3 1   
     6     2    23 1   
     7     2    24 1   
     8     3     4 1   
     9     3    25 1   
    10     3    26 1   
    11     4     5 1   
    12     4    27 1   
    13     4    28 1   
    14     5     6 2   
    15     5    18 1   
    16     6     7 1   
    17     7     8 2   
    18     7    29 1   
    19     8     9 1   
    20     8    30 1   
    21     9    10 2   
    22     9    19 1   
    23    10    11 1   
    24    10    31 1   
    25    11    12 2   
    26    11    32 1   
    27    12    13 1   
    28    12    33 1   
    29    13    14 2   
    30    13    20 1   
    31    14    15 1   
    32    14    34 1   
    33    15    21 1   
    34    15    22 1   
    35    16    35 1   
    36    16    36 1   
    37    16    37 1   
    38    17    38 1   
    39    17    39 1   
    40    17    40 1   
    41    18    41 1   
    42    18    42 1   
    43    18    43 1   
    44    19    44 1   
    45    19    45 1   
    46    19    46 1   
    47    20    47 1   
    48    20    48 1   
    49    20    49 1   
@<TRIPOS>SUBSTRUCTURE
     1 REA         1 TEMP              0 ****  ****    0 ROOT
