@<TRIPOS>MOLECULE
REB
   42    45     1     0     0
SMALL
No Charge or Current Charge


@<TRIPOS>ATOM
      1 C10          3.5480     0.3950     0.0330 cc         1 REB      -0.214000
      2 N12          5.6600     0.0260    -0.3740 na         1 REB      -0.002200
      3 C15          5.8820     3.1500    -1.2240 cx         1 REB      -0.123400
      4 C20         -4.3860     1.8860     0.7290 ca         1 REB      -0.065000
      5 C21         -5.3540     0.9510     0.3140 ca         1 REB      -0.128300
      6 C22         -4.9400    -0.3270    -0.1070 ca         1 REB      -0.065000
      7 C24         -6.8350     1.3230     0.3120 c3         1 REB       0.041000
      8 C02          1.0580    -3.3520     0.6750 ca         1 REB      -0.328000
      9 C03         -0.3310    -3.4300     0.8550 ca         1 REB       0.169900
     10 N04         -1.1100    -2.3410     0.7380 nb         1 REB      -0.262000
     11 C05         -0.4880    -1.1890     0.4310 ca         1 REB       0.420900
     12 N06          0.8290    -1.0120     0.2530 nb         1 REB      -0.314000
     13 C07          1.6010    -2.1010     0.3760 ca         1 REB       0.433900
     14 N08          2.9680    -1.9890     0.1870 nu         1 REB      -0.886800
     15 C09          3.8460    -0.9700    -0.0110 cc         1 REB       0.505900
     16 C11          4.7160     1.0540    -0.2040 cd         1 REB      -0.093300
     17 N13          5.0980    -1.2500    -0.2450 nd         1 REB      -0.580800
     18 C14          4.9020     2.5280    -0.2560 cx         1 REB      -0.071400
     19 C16          6.1720     3.1660     0.2590 cx         1 REB      -0.123400
     20 C18         -2.6080     0.2610     0.3240 ca         1 REB       0.334000
     21 C19         -3.0230     1.5410     0.7270 ca         1 REB      -0.156000
     22 C23         -3.5750    -0.6670    -0.1050 ca         1 REB      -0.156000
     23 C25         -7.2410     1.9100    -0.9710 c1         1 REB       0.300900
     24 N26         -7.5890     2.3800    -1.9800 n1         1 REB      -0.464000
     25 H10          2.5810     0.8380     0.2250 ha         1 REB       0.165000
     26 H15          6.4760     2.4900    -1.8510 hc         1 REB       0.075700
     27 H15A         5.5990     4.0890    -1.6950 hc         1 REB       0.075700
     28 H20         -4.6870     2.8810     1.0510 ha         1 REB       0.114000
     29 H22         -5.6730    -1.0570    -0.4430 ha         1 REB       0.114000
     30 H24         -7.4580     0.4420     0.5040 hc         1 REB       0.073700
     31 H24A        -7.0570     2.0410     1.1100 hc         1 REB       0.073700
     32 H02          1.6800    -4.2370     0.7710 ha         1 REB       0.135000
     33 H03         -0.8240    -4.3700     1.0970 h4         1 REB       0.021100
     34 HN08         3.4560    -2.8780     0.1920 hn         1 REB       0.515000
     35 H14          3.9800     3.0790    -0.0810 hc         1 REB       0.098700
     36 H16          6.9610     2.5150     0.6290 hc         1 REB       0.075700
     37 H16A         6.0840     4.1140     0.7830 hc         1 REB       0.075700
     38 HN17        -0.6490     0.8020     0.3230 hn         1 REB       0.508000
     39 H19         -2.2880     2.2730     1.0510 ha         1 REB       0.133000
     40 H23         -3.2800    -1.6480    -0.4590 ha         1 REB       0.133000
     41 HN12         6.6520     0.1540    -0.5680 hn         1 REB       0.372000
     42 N17         -1.2390    -0.0280     0.3280 nu         1 REB      -0.929900
@<TRIPOS>BOND
     1     1    15 1   
     2     1    16 2   
     3     1    25 1   
     4     2    16 1   
     5     2    17 1   
     6     2    41 1   
     7     3    18 1   
     8     3    19 1   
     9     3    26 1   
    10     3    27 1   
    11     4     5 ar  
    12     4    21 ar  
    13     4    28 1   
    14     5     6 ar  
    15     5     7 1   
    16     6    22 ar  
    17     6    29 1   
    18     7    23 1   
    19     7    30 1   
    20     7    31 1   
    21     8     9 ar  
    22     8    13 ar  
    23     8    32 1   
    24     9    10 ar  
    25     9    33 1   
    26    10    11 ar  
    27    11    12 ar  
    28    11    42 1   
    29    12    13 ar  
    30    13    14 1   
    31    14    15 1   
    32    14    34 1   
    33    15    17 2   
    34    16    18 1   
    35    18    19 1   
    36    18    35 1   
    37    19    36 1   
    38    19    37 1   
    39    20    21 ar  
    40    20    22 ar  
    41    20    42 1   
    42    21    39 1   
    43    22    40 1   
    44    23    24 3   
    45    38    42 1   
@<TRIPOS>SUBSTRUCTURE
     1 REB         1 TEMP              0 ****  ****    0 ROOT
