@<TRIPOS>MOLECULE
REB
   42    45     1     0     0
SMALL
bcc


@<TRIPOS>ATOM
      1 C10          3.3380     0.4420    -0.0240 cc         1 REB      -0.297300
      2 N12          5.4980     0.1760    -0.1170 na         1 REB      -0.002600
      3 C15          5.8960     3.0980    -1.1090 cx         1 REB      -0.123400
      4 C20         -4.1950     1.9620     0.3680 ca         1 REB      -0.083000
      5 C21         -5.2160     1.0160     0.4060 ca         1 REB      -0.128300
      6 C22         -4.8650    -0.3260     0.4010 ca         1 REB      -0.083000
      7 C24         -6.6640     1.4410     0.4350 c3         1 REB       0.041000
      8 C02          1.0140    -3.4590     0.3600 ca         1 REB      -0.476600
      9 C03         -0.3510    -3.4880     0.4380 ca         1 REB       0.498200
     10 N04         -1.1230    -2.3960     0.4130 nb         1 REB      -0.788000
     11 C05         -0.4740    -1.2480     0.3060 ca         1 REB       0.946900
     12 N06          0.8500    -1.0880     0.2240 nb         1 REB      -0.840000
     13 C07          1.5970    -2.1780     0.2490 ca         1 REB       0.762200
     14 N08          2.9420    -2.0640     0.1680 nu         1 REB      -0.831600
     15 C09          3.7090    -0.9160     0.0510 cc         1 REB       0.571200
     16 C11          4.5390     1.1160    -0.1330 cd         1 REB      -0.042600
     17 N13          5.0190    -1.0680    -0.0060 nd         1 REB      -0.580800
     18 C14          4.7840     2.5600    -0.2470 cx         1 REB      -0.071400
     19 C16          5.9960     3.2010     0.3760 cx         1 REB      -0.123400
     20 C18         -2.5180     0.2150     0.3230 ca         1 REB       0.195600
     21 C19         -2.8710     1.5710     0.3270 ca         1 REB      -0.174000
     22 C23         -3.5400    -0.7370     0.3630 ca         1 REB      -0.174000
     23 C25         -7.1490     1.7710    -0.8990 c1         1 REB       0.211700
     24 N26         -7.5180     2.0210    -1.9600 n1         1 REB      -0.374800
     25 H10          2.3530     0.8680    -0.0030 ha         1 REB       0.183000
     26 H15          6.5320     2.3870    -1.6210 hc         1 REB       0.075700
     27 H15A         5.6900     3.9970    -1.6760 hc         1 REB       0.075700
     28 H20         -4.4300     3.0190     0.3740 ha         1 REB       0.132000
     29 H22         -5.6390    -1.0830     0.4280 ha         1 REB       0.132000
     30 H24         -7.2990     0.6490     0.8350 hc         1 REB       0.073700
     31 H24A        -6.8100     2.3150     1.0730 hc         1 REB       0.073700
     32 H02          1.6080    -4.3620     0.3840 ha         1 REB       0.153000
     33 H03         -0.8700    -4.4360     0.5270 h4         1 REB       0.021100
     34 HN08         3.4710    -2.9230     0.1930 hn         1 REB       0.459800
     35 H14          3.8730     3.1440    -0.2270 hc         1 REB       0.098700
     36 H16          6.7020     2.5620     0.8900 hc         1 REB       0.075700
     37 H16A         5.8590     4.1710     0.8350 hc         1 REB       0.075700
     38 HN17        -0.5550     0.7350     0.2090 hn         1 REB       0.452800
     39 H19         -2.0960     2.3280     0.3030 ha         1 REB       0.151000
     40 H23         -3.3060    -1.7880     0.3660 ha         1 REB       0.151000
     41 HN12         6.4940     0.3060    -0.1770 hn         1 REB       0.321700
     42 N17         -1.1610    -0.0690     0.2760 nu         1 REB      -0.736300
@<TRIPOS>BOND
     1     1    15 1   
     2     1    16 2   
     3     1    25 1   
     4     2    16 1   
     5     2    17 1   
     6     2    41 1   
     7     3    18 1   
     8     3    19 1   
     9     3    26 1   
    10     3    27 1   
    11     4     5 ar  
    12     4    21 ar  
    13     4    28 1   
    14     5     6 ar  
    15     5     7 1   
    16     6    22 ar  
    17     6    29 1   
    18     7    23 1   
    19     7    30 1   
    20     7    31 1   
    21     8     9 ar  
    22     8    13 ar  
    23     8    32 1   
    24     9    10 ar  
    25     9    33 1   
    26    10    11 ar  
    27    11    12 ar  
    28    11    42 1   
    29    12    13 ar  
    30    13    14 1   
    31    14    15 1   
    32    14    34 1   
    33    15    17 2   
    34    16    18 1   
    35    18    19 1   
    36    18    35 1   
    37    19    36 1   
    38    19    37 1   
    39    20    21 ar  
    40    20    22 ar  
    41    20    42 1   
    42    21    39 1   
    43    22    40 1   
    44    23    24 3   
    45    38    42 1   
@<TRIPOS>SUBSTRUCTURE
     1 REB         1 TEMP              0 ****  ****    0 ROOT
