@<TRIPOS>MOLECULE
REC
   44    44     1     0     0
SMALL
abcg2


@<TRIPOS>ATOM
      1 O14         -3.5190    -3.5330     1.4010 o          1 REC      -0.719500
      2 C13         -3.7460    -3.0370     0.2870 c          1 REC       0.648700
      3 O15         -3.7650    -3.5950    -0.8240 o          1 REC      -0.719500
      4 C4          -4.0350    -1.5390     0.2620 ce         1 REC       0.406600
      5 N5          -3.0300    -0.7720     0.3940 n2         1 REC      -0.605900
      6 C3          -5.4410    -1.0950     0.1450 ce         1 REC      -0.169800
      7 C16         -6.4120    -1.9060    -0.2780 c2         1 REC      -0.324000
      8 C2          -5.7070     0.3140     0.5610 c6         1 REC       0.063800
      9 S1          -4.5820     1.4110    -0.3440 ss         1 REC      -0.438000
     10 C6          -3.0560     0.6570     0.3300 c6         1 REC       0.279500
     11 C7          -1.8670     1.1450    -0.5110 c3         1 REC      -0.006300
     12 C8          -1.8400     2.6950    -0.4760 c          1 REC       0.731000
     13 O9          -1.3570     3.2210     0.5390 o          1 REC      -0.728000
     14 N10         -0.6740     0.5540     0.0440 ns         1 REC      -0.459900
     15 C11          0.5520     0.8360    -0.4220 c          1 REC       0.596100
     16 O12          0.7470     1.6640    -1.3020 o          1 REC      -0.627100
     17 CA1          1.6730     0.0400     0.2200 c3         1 REC      -0.159400
     18 CB1          3.0640     0.5100    -0.1690 c3         1 REC      -0.063400
     19 CG1          4.1600    -0.3220     0.4860 c3         1 REC      -0.077400
     20 CD1          5.5560     0.1680     0.1270 c3         1 REC      -0.049400
     21 CE1          6.6870    -0.6830     0.7100 c3         1 REC       0.015500
     22 NZ1          6.6290    -2.0300     0.1600 n8         1 REC      -0.988200
     23 CZ1          8.0340     0.0540     0.5060 c          1 REC       0.690000
     24 OH1          8.8160    -0.3990    -0.3550 o          1 REC      -0.749500
     25 O            8.2140     1.0740     1.2040 o          1 REC      -0.749500
     26 OXT         -2.3690     3.2610    -1.4510 o          1 REC      -0.728000
     27 H6          -2.9190     1.0330     1.3510 h2         1 REC       0.083700
     28 H161        -6.2200    -2.9180    -0.6040 ha         1 REC       0.152500
     29 H162        -7.4380    -1.5640    -0.3280 ha         1 REC       0.152500
     30 H2C1        -6.7270     0.6190     0.3270 h1         1 REC       0.045700
     31 H2C2        -5.5560     0.4490     1.6350 h1         1 REC       0.045700
     32 H7          -2.0200     0.8070    -1.5420 h1         1 REC       0.052700
     33 H10         -0.7960    -0.2480     0.6440 hn         1 REC       0.315500
     34 HA11         1.5540     0.0710     1.3070 hc         1 REC       0.043200
     35 HA12         1.5440    -1.0130    -0.0570 hc         1 REC       0.043200
     36 HB11         3.1790     0.4670    -1.2550 hc         1 REC       0.044200
     37 HB12         3.1890     1.5610     0.1100 hc         1 REC       0.044200
     38 HG11         4.0410    -0.2950     1.5760 hc         1 REC       0.029200
     39 HG12         4.0550    -1.3700     0.1940 hc         1 REC       0.029200
     40 HD11         5.6620     0.1980    -0.9650 hc         1 REC       0.036200
     41 HD12         5.6760     1.1980     0.4720 hc         1 REC       0.036200
     42 HE1          6.5160    -0.7600     1.7910 h1         1 REC       0.034700
     43 HZ11         6.9920    -1.9870    -0.7860 hn         1 REC       0.371000
     44 HZ12         7.2940    -2.6120     0.6540 hn         1 REC       0.371000
@<TRIPOS>BOND
     1     1     2 1   
     2     2     3 1   
     3     2     4 1   
     4     4     5 2   
     5     4     6 1   
     6     5    10 1   
     7     6     7 2   
     8     6     8 1   
     9     7    28 1   
    10     7    29 1   
    11     8     9 1   
    12     8    30 1   
    13     8    31 1   
    14     9    10 1   
    15    10    11 1   
    16    10    27 1   
    17    11    12 1   
    18    11    14 1   
    19    11    32 1   
    20    12    13 1   
    21    12    26 1   
    22    14    15 1   
    23    14    33 1   
    24    15    16 2   
    25    15    17 1   
    26    17    18 1   
    27    17    34 1   
    28    17    35 1   
    29    18    19 1   
    30    18    36 1   
    31    18    37 1   
    32    19    20 1   
    33    19    38 1   
    34    19    39 1   
    35    20    21 1   
    36    20    40 1   
    37    20    41 1   
    38    21    22 1   
    39    21    23 1   
    40    21    42 1   
    41    22    43 1   
    42    22    44 1   
    43    23    24 1   
    44    23    25 1   
@<TRIPOS>SUBSTRUCTURE
     1 REC         1 TEMP              0 ****  ****    0 ROOT
