@<TRIPOS>MOLECULE
REC
   44    44     1     0     0
SMALL
No Charge or Current Charge


@<TRIPOS>ATOM
      1 O14         -2.9320    -3.1050    -1.7150 o          1 REC      -0.719500
      2 C13         -4.0030    -2.7270    -1.2400 c          1 REC       0.648700
      3 O15         -5.0360    -3.3570    -1.4600 o          1 REC      -0.719500
      4 C4          -4.0590    -1.4270    -0.3830 ce         1 REC       0.406600
      5 N5          -2.9590    -0.7320    -0.1890 n2         1 REC      -0.605900
      6 C3          -5.3230    -1.0050     0.3100 ce         1 REC      -0.169800
      7 C16         -6.1380    -1.8660     0.9660 c2         1 REC      -0.324000
      8 C2          -5.7100     0.4810     0.2700 c6         1 REC       0.063800
      9 S1          -4.4850     1.4970    -0.6420 ss         1 REC      -0.438000
     10 C6          -3.0100     0.7070     0.1020 c6         1 REC       0.279500
     11 C7          -1.7100     1.4160    -0.3860 c3         1 REC      -0.006300
     12 C8          -1.6860     2.9020     0.0620 c          1 REC       0.731000
     13 O9          -1.7350     3.1470     1.2610 o          1 REC      -0.728000
     14 N10         -0.4610     0.7430     0.0730 ns         1 REC      -0.459900
     15 C11          0.3800    -0.0050    -0.7220 c          1 REC       0.596100
     16 O12          0.2080    -0.1420    -1.9260 o          1 REC      -0.627100
     17 CA1          1.5450    -0.6700     0.0230 c3         1 REC      -0.159400
     18 CB1          2.8880     0.0390    -0.2720 c3         1 REC      -0.063400
     19 CG1          4.0840    -0.6010     0.4670 c3         1 REC      -0.077400
     20 CD1          5.4290     0.1110     0.1740 c3         1 REC      -0.049400
     21 CE1          6.6480    -0.4660     0.9450 c3         1 REC       0.015500
     22 NZ1          6.9350    -1.8860     0.5250 n8         1 REC      -0.988200
     23 CZ1          7.8720     0.5410     0.8660 c          1 REC       0.690000
     24 OH1          8.5150     0.5980    -0.1740 o          1 REC      -0.749500
     25 O            8.1990     1.1380     1.8830 o          1 REC      -0.749500
     26 OXT         -1.5020     3.7640    -0.7870 o          1 REC      -0.728000
     27 H6          -3.0920     0.8440     1.1920 h2         1 REC       0.083700
     28 H161        -5.9160    -2.9320     1.0370 ha         1 REC       0.152500
     29 H162        -7.0510    -1.5290     1.4590 ha         1 REC       0.152500
     30 H2C1        -6.6900     0.6090    -0.2110 h1         1 REC       0.045700
     31 H2C2        -5.7770     0.8730     1.2950 h1         1 REC       0.045700
     32 H7          -1.7270     1.4110    -1.4830 h1         1 REC       0.052700
     33 H10         -0.2220     0.8000     1.0550 hn         1 REC       0.315500
     34 HA11         1.3670    -0.6380     1.1050 hc         1 REC       0.043200
     35 HA12         1.6240    -1.7130    -0.3080 hc         1 REC       0.043200
     36 HB11         3.0780     0.0180    -1.3520 hc         1 REC       0.044200
     37 HB12         2.8070     1.0950     0.0170 hc         1 REC       0.044200
     38 HG11         3.8940    -0.5760     1.5480 hc         1 REC       0.029200
     39 HG12         4.1560    -1.6560     0.1780 hc         1 REC       0.029200
     40 HD11         5.6310     0.0830    -0.9040 hc         1 REC       0.036200
     41 HD12         5.3220     1.1700     0.4410 hc         1 REC       0.036200
     42 HE1          6.3620    -0.5090     2.0060 h1         1 REC       0.034700
     43 HZ11         7.3250    -1.8660    -0.4250 hn         1 REC       0.371000
     44 HZ12         7.7120    -2.2500     1.0890 hn         1 REC       0.371000
@<TRIPOS>BOND
     1     1     2 1   
     2     2     3 1   
     3     2     4 1   
     4     4     5 2   
     5     4     6 1   
     6     5    10 1   
     7     6     7 2   
     8     6     8 1   
     9     7    28 1   
    10     7    29 1   
    11     8     9 1   
    12     8    30 1   
    13     8    31 1   
    14     9    10 1   
    15    10    11 1   
    16    10    27 1   
    17    11    12 1   
    18    11    14 1   
    19    11    32 1   
    20    12    13 1   
    21    12    26 1   
    22    14    15 1   
    23    14    33 1   
    24    15    16 2   
    25    15    17 1   
    26    17    18 1   
    27    17    34 1   
    28    17    35 1   
    29    18    19 1   
    30    18    36 1   
    31    18    37 1   
    32    19    20 1   
    33    19    38 1   
    34    19    39 1   
    35    20    21 1   
    36    20    40 1   
    37    20    41 1   
    38    21    22 1   
    39    21    23 1   
    40    21    42 1   
    41    22    43 1   
    42    22    44 1   
    43    23    24 1   
    44    23    25 1   
@<TRIPOS>SUBSTRUCTURE
     1 REC         1 TEMP              0 ****  ****    0 ROOT
