@<TRIPOS>MOLECULE
REE
   24    23     1     0     0
SMALL
No Charge or Current Charge


@<TRIPOS>ATOM
      1 C1          21.5960    27.4530    88.1310 c          1 REE       0.714000
      2 N1          21.7080    30.5090    87.8710 n7         1 REE      -0.558200
      3 O1          22.3090    26.6480    87.5510 o          1 REE      -0.714000
      4 C2          20.6700    28.3310    87.2820 c3         1 REE      -0.218400
      5 N2          22.4480    31.8030    87.6550 n4         1 REE      -0.341000
      6 O2          21.5730    27.5860    89.3450 o          1 REE      -0.714000
      7 C3          21.4190    29.5740    86.7690 c3         1 REE       0.132800
      8 C4          22.6290    32.5090    89.0050 c3         1 REE       0.085233
      9 C5          23.8330    31.5180    87.0600 c3         1 REE       0.085233
     10 C6          21.6640    32.7210    86.7050 c3         1 REE       0.085233
     11 HN1         20.8190    30.7520    88.3310 hn         1 REE       0.424000
     12 H2          20.3850    27.7890    86.3730 hc         1 REE       0.050200
     13 H2A         19.8140    28.6850    87.8680 hc         1 REE       0.050200
     14 H3          20.7960    30.0710    86.0140 h1         1 REE       0.048700
     15 H3A         22.3470    29.2590    86.2740 h1         1 REE       0.048700
     16 H4          23.1890    33.4340    88.8540 hx         1 REE       0.091367
     17 H4A         21.6500    32.7360    89.4290 hx         1 REE       0.091367
     18 H4B         23.1790    31.8500    89.6790 hx         1 REE       0.091367
     19 H5          24.3760    32.4570    86.9420 hx         1 REE       0.091367
     20 H5A         24.3790    30.8560    87.7360 hx         1 REE       0.091367
     21 H5B         23.7140    31.0350    86.0890 hx         1 REE       0.091367
     22 H6          22.2150    33.6540    86.5720 hx         1 REE       0.091367
     23 H6A         21.5460    32.2230    85.7410 hx         1 REE       0.091367
     24 H6B         20.6830    32.9320    87.1340 hx         1 REE       0.091367
@<TRIPOS>BOND
     1     1     3 1   
     2     1     4 1   
     3     1     6 1   
     4     2     5 1   
     5     2     7 1   
     6     2    11 1   
     7     4     7 1   
     8     4    12 1   
     9     4    13 1   
    10     5     8 1   
    11     5     9 1   
    12     5    10 1   
    13     7    14 1   
    14     7    15 1   
    15     8    16 1   
    16     8    17 1   
    17     8    18 1   
    18     9    19 1   
    19     9    20 1   
    20     9    21 1   
    21    10    22 1   
    22    10    23 1   
    23    10    24 1   
@<TRIPOS>SUBSTRUCTURE
     1 REE         1 TEMP              0 ****  ****    0 ROOT
