@<TRIPOS>MOLECULE
REE
   24    23     1     0     0
SMALL
abcg2


@<TRIPOS>ATOM
      1 C1          21.7460    27.4660    88.0160 c          1 REE       0.714000
      2 N1          21.7130    30.5580    87.9880 n7         1 REE      -0.558200
      3 O1          22.9090    27.5020    87.5410 o          1 REE      -0.714000
      4 C2          20.7000    28.4370    87.4260 c3         1 REE      -0.218400
      5 N2          22.4460    31.7710    87.6220 n4         1 REE      -0.341000
      6 O2          21.3290    26.6790    88.9040 o          1 REE      -0.714000
      7 C3          21.2640    29.7280    86.8580 c3         1 REE       0.132800
      8 C4          22.5900    32.5590    88.8880 c3         1 REE       0.085233
      9 C5          23.8090    31.3790    87.1390 c3         1 REE       0.085233
     10 C6          21.7560    32.6120    86.5860 c3         1 REE       0.085233
     11 HN1         20.8970    30.8900    88.4980 hn         1 REE       0.424000
     12 H2          20.1900    27.9060    86.6160 hc         1 REE       0.050200
     13 H2A         19.9390    28.6490    88.1810 hc         1 REE       0.050200
     14 H3          20.5090    30.2360    86.2500 h1         1 REE       0.048700
     15 H3A         22.1190    29.4900    86.2310 h1         1 REE       0.048700
     16 H4          23.1860    33.4410    88.6730 hx         1 REE       0.091367
     17 H4A         21.5980    32.8460    89.2270 hx         1 REE       0.091367
     18 H4B         23.0800    31.9260    89.6220 hx         1 REE       0.091367
     19 H5          24.3770    32.2910    86.9800 hx         1 REE       0.091367
     20 H5A         24.2680    30.7590    87.9020 hx         1 REE       0.091367
     21 H5B         23.7130    30.8350    86.2050 hx         1 REE       0.091367
     22 H6          22.3320    33.5250    86.4590 hx         1 REE       0.091367
     23 H6A         21.7170    32.0620    85.6520 hx         1 REE       0.091367
     24 H6B         20.7550    32.8370    86.9470 hx         1 REE       0.091367
@<TRIPOS>BOND
     1     1     3 1   
     2     1     4 1   
     3     1     6 1   
     4     2     5 1   
     5     2     7 1   
     6     2    11 1   
     7     4     7 1   
     8     4    12 1   
     9     4    13 1   
    10     5     8 1   
    11     5     9 1   
    12     5    10 1   
    13     7    14 1   
    14     7    15 1   
    15     8    16 1   
    16     8    17 1   
    17     8    18 1   
    18     9    19 1   
    19     9    20 1   
    20     9    21 1   
    21    10    22 1   
    22    10    23 1   
    23    10    24 1   
@<TRIPOS>SUBSTRUCTURE
     1 REE         1 TEMP              0 ****  ****    0 ROOT
