@<TRIPOS>MOLECULE
REF
   28    31     1     0     0
SMALL
No Charge or Current Charge


@<TRIPOS>ATOM
      1 C1          -1.1390     1.3100     0.0110 ca         1 REF      -0.150600
      2 C2          -0.6550    -0.0150     0.0080 ca         1 REF      -0.055500
      3 C3           0.7260    -0.2480    -0.0060 ca         1 REF      -0.055500
      4 C4           1.6230     0.8390    -0.0160 ca         1 REF       0.110600
      5 O5           1.1550     2.1350    -0.0120 os         1 REF      -0.335700
      6 C6          -0.1740     2.4740     0.0010 c          1 REF       0.697700
      7 C7           1.2120    -1.5720    -0.0090 ca         1 REF      -0.150600
      8 C8           2.6090    -1.7940    -0.0230 ca         1 REF      -0.091000
      9 C9           3.5020    -0.7110    -0.0330 ca         1 REF       0.097100
     10 C10          3.0130     0.6100    -0.0290 ca         1 REF       0.112600
     11 C11         -1.5520    -1.1030     0.0180 ca         1 REF       0.110600
     12 O12         -1.0790    -2.3980     0.0140 os         1 REF      -0.335700
     13 C13          0.2490    -2.7370     0.0010 c          1 REF       0.697700
     14 C14         -2.5350     1.5370     0.0250 ca         1 REF      -0.091000
     15 C15         -3.4330     0.4540     0.0350 ca         1 REF       0.097100
     16 C16         -2.9440    -0.8680     0.0310 ca         1 REF       0.112600
     17 O19          3.8930     1.6660    -0.0390 oh         1 REF      -0.520100
     18 O20          4.8500    -0.9400    -0.0460 oh         1 REF      -0.536100
     19 O21          0.6190    -3.9040    -0.0010 o          1 REF      -0.468500
     20 O22         -3.8400    -1.9070     0.0410 oh         1 REF      -0.520100
     21 O23         -4.7880     0.6740     0.0480 oh         1 REF      -0.536100
     22 O24         -0.5410     3.6420     0.0030 o          1 REF      -0.468500
     23 H8           3.0050    -2.8080    -0.0260 ha         1 REF       0.152000
     24 H14         -2.9180     2.5560     0.0280 ha         1 REF       0.152000
     25 HO19         3.3640     2.4960    -0.0340 ho         1 REF       0.498000
     26 HO20         5.2880    -0.0580    -0.0510 ho         1 REF       0.489500
     27 HO22        -4.7360    -1.5000     0.0490 ho         1 REF       0.498000
     28 HO23        -4.9600     1.6420     0.0490 ho         1 REF       0.489500
@<TRIPOS>BOND
     1     1     2 ar  
     2     1     6 1   
     3     1    14 ar  
     4     2     3 1   
     5     2    11 ar  
     6     3     4 ar  
     7     3     7 ar  
     8     4     5 1   
     9     4    10 ar  
    10     5     6 1   
    11     6    22 2   
    12     7     8 ar  
    13     7    13 1   
    14     8     9 ar  
    15     8    23 1   
    16     9    10 ar  
    17     9    18 1   
    18    10    17 1   
    19    11    12 1   
    20    11    16 ar  
    21    12    13 1   
    22    13    19 2   
    23    14    15 ar  
    24    14    24 1   
    25    15    16 ar  
    26    15    21 1   
    27    16    20 1   
    28    17    25 1   
    29    18    26 1   
    30    20    27 1   
    31    21    28 1   
@<TRIPOS>SUBSTRUCTURE
     1 REF         1 TEMP              0 ****  ****    0 ROOT
