@<TRIPOS>MOLECULE
REF
   28    31     1     0     0
SMALL
abcg2


@<TRIPOS>ATOM
      1 C1          -1.1480     1.3320     0.0080 ca         1 REF      -0.150600
      2 C2          -0.6720     0.0250     0.0050 ca         1 REF      -0.055500
      3 C3           0.7220    -0.2400    -0.0080 ca         1 REF      -0.055500
      4 C4           1.5960     0.8310    -0.0160 ca         1 REF       0.110600
      5 O5           1.1320     2.1090    -0.0140 os         1 REF      -0.335700
      6 C6          -0.1910     2.4350    -0.0030 c          1 REF       0.697700
      7 C7           1.2020    -1.5450    -0.0110 ca         1 REF      -0.150600
      8 C8           2.5740    -1.7720    -0.0230 ca         1 REF      -0.091000
      9 C9           3.4500    -0.6990    -0.0310 ca         1 REF       0.097100
     10 C10          2.9660     0.6260    -0.0270 ca         1 REF       0.112600
     11 C11         -1.5440    -1.0480     0.0160 ca         1 REF       0.110600
     12 O12         -1.0790    -2.3250     0.0120 os         1 REF      -0.335700
     13 C13          0.2410    -2.6480    -0.0010 c          1 REF       0.697700
     14 C14         -2.5220     1.5600     0.0230 ca         1 REF      -0.091000
     15 C15         -3.3920     0.4850     0.0360 ca         1 REF       0.097100
     16 C16         -2.9150    -0.8430     0.0320 ca         1 REF       0.112600
     17 O19          3.8770     1.6040    -0.0330 oh         1 REF      -0.520100
     18 O20          4.7680    -0.9450    -0.0430 oh         1 REF      -0.536100
     19 O21          0.5220    -3.8160    -0.0040 o          1 REF      -0.468500
     20 O22         -3.7280    -1.8980     0.0430 oh         1 REF      -0.520100
     21 O23         -4.7310     0.5960     0.0530 oh         1 REF      -0.536100
     22 O24         -0.4690     3.6040    -0.0040 o          1 REF      -0.468500
     23 H8           2.9710    -2.7790    -0.0270 ha         1 REF       0.152000
     24 H14         -2.9110     2.5710     0.0250 ha         1 REF       0.152000
     25 HO19         3.4750     2.4820    -0.0310 ho         1 REF       0.498000
     26 HO20         5.2830    -0.1290    -0.0470 ho         1 REF       0.489500
     27 HO22        -4.6540    -1.6210     0.0530 ho         1 REF       0.498000
     28 HO23        -5.0100     1.5200     0.0530 ho         1 REF       0.489500
@<TRIPOS>BOND
     1     1     2 ar  
     2     1     6 1   
     3     1    14 ar  
     4     2     3 1   
     5     2    11 ar  
     6     3     4 ar  
     7     3     7 ar  
     8     4     5 1   
     9     4    10 ar  
    10     5     6 1   
    11     6    22 2   
    12     7     8 ar  
    13     7    13 1   
    14     8     9 ar  
    15     8    23 1   
    16     9    10 ar  
    17     9    18 1   
    18    10    17 1   
    19    11    12 1   
    20    11    16 ar  
    21    12    13 1   
    22    13    19 2   
    23    14    15 ar  
    24    14    24 1   
    25    15    16 ar  
    26    15    21 1   
    27    16    20 1   
    28    17    25 1   
    29    18    26 1   
    30    20    27 1   
    31    21    28 1   
@<TRIPOS>SUBSTRUCTURE
     1 REF         1 TEMP              0 ****  ****    0 ROOT
