@<TRIPOS>MOLECULE
REG
   35    36     1     0     0
SMALL
bcc


@<TRIPOS>ATOM
      1 C4          31.1030    14.8900    48.1330 c5         1 REG      -0.102400
      2 C5          31.7940    14.2450    45.0790 c          1 REG       0.784100
      3 C6          33.3880    13.3510    43.4220 c3         1 REG       0.110000
      4 N1          32.7730    14.4280    44.1520 ns         1 REG      -0.592900
      5 C7          34.7930    13.0190    43.9010 c5         1 REG       0.115100
      6 C8          34.9130    12.6130    45.3670 c5         1 REG      -0.105400
      7 C9          36.3060    13.1140    45.7280 c5         1 REG      -0.114400
      8 C10         36.3730    14.4050    44.9270 c5         1 REG       0.133400
      9 O           31.2810    13.1510    45.3000 o          1 REG      -0.654100
     10 N           31.3940    15.3770    45.7150 ns         1 REG      -0.588900
     11 C3          30.4590    15.3520    46.8230 c5         1 REG       0.129700
     12 C2          30.0410    16.7810    47.1650 c5         1 REG      -0.102400
     13 C1          31.2070    17.3410    47.9990 c5         1 REG      -0.083400
     14 C           31.9160    16.1050    48.6040 c5         1 REG      -0.083400
     15 O1          35.6290    14.1650    43.7420 os         1 REG      -0.427600
     16 H1          30.3090    14.6620    48.8490 hc         1 REG       0.054950
     17 H2          31.7040    13.9870    48.0180 hc         1 REG       0.054950
     18 H3          33.4250    13.6110    42.3610 h1         1 REG       0.066200
     19 H4          32.7620    12.4640    43.5040 h1         1 REG       0.066200
     20 H5          33.1790    15.3420    44.0410 hn         1 REG       0.311500
     21 H6          35.1750    12.2100    43.2630 h1         1 REG       0.053700
     22 H7          34.1600    13.1180    45.9780 hc         1 REG       0.062200
     23 H8          34.7850    11.5390    45.5020 hc         1 REG       0.062200
     24 H9          37.0690    12.4090    45.3920 hc         1 REG       0.055200
     25 H10         36.4470    13.2760    46.7960 hc         1 REG       0.055200
     26 H11         37.3920    14.6930    44.6610 h1         1 REG       0.040700
     27 H12         35.9280    15.2330    45.4930 h1         1 REG       0.040700
     28 H13         31.9190    16.2250    45.5670 hn         1 REG       0.303500
     29 H14         29.6040    14.7340    46.5450 h1         1 REG       0.082700
     30 H15         29.8100    17.3800    46.2820 hc         1 REG       0.054950
     31 H16         29.1330    16.7360    47.7690 hc         1 REG       0.054950
     32 H17         31.8950    17.9110    47.3720 hc         1 REG       0.040450
     33 H18         30.8510    18.0280    48.7660 hc         1 REG       0.040450
     34 H19         32.9430    16.0390    48.2430 hc         1 REG       0.040450
     35 H20         31.9730    16.1540    49.6920 hc         1 REG       0.040450
@<TRIPOS>BOND
     1     1    11 1   
     2     1    14 1   
     3     1    16 1   
     4     1    17 1   
     5     2     4 1   
     6     2     9 2   
     7     2    10 1   
     8     3     4 1   
     9     3     5 1   
    10     3    18 1   
    11     3    19 1   
    12     4    20 1   
    13     5     6 1   
    14     5    15 1   
    15     5    21 1   
    16     6     7 1   
    17     6    22 1   
    18     6    23 1   
    19     7     8 1   
    20     7    24 1   
    21     7    25 1   
    22     8    15 1   
    23     8    26 1   
    24     8    27 1   
    25    10    11 1   
    26    10    28 1   
    27    11    12 1   
    28    11    29 1   
    29    12    13 1   
    30    12    30 1   
    31    12    31 1   
    32    13    14 1   
    33    13    32 1   
    34    13    33 1   
    35    14    34 1   
    36    14    35 1   
@<TRIPOS>SUBSTRUCTURE
     1 REG         1 TEMP              0 ****  ****    0 ROOT
