@<TRIPOS>MOLECULE
REG
   35    36     1     0     0
SMALL
No Charge or Current Charge


@<TRIPOS>ATOM
      1 C4          31.1610    14.9640    48.1910 c5         1 REG      -0.102400
      2 C5          31.7570    14.2780    45.1440 c          1 REG       0.650100
      3 C6          33.4500    13.6020    43.4150 c3         1 REG       0.110000
      4 N1          32.6960    14.5890    44.2020 ns         1 REG      -0.525900
      5 C7          34.8430    13.2320    43.9920 c5         1 REG       0.138300
      6 C8          34.8710    12.6890    45.4390 c5         1 REG      -0.105400
      7 C9          36.3930    12.7870    45.7320 c5         1 REG      -0.114400
      8 C10         36.8270    14.0390    44.9070 c5         1 REG       0.156600
      9 O           31.3790    13.1400    45.3680 o          1 REG      -0.654100
     10 N           31.2970    15.3910    45.7980 ns         1 REG      -0.521900
     11 C3          30.3370    15.2090    46.8970 c5         1 REG       0.129700
     12 C2          29.7470    16.6150    47.1860 c5         1 REG      -0.102400
     13 C1          30.9120    17.4060    47.8660 c5         1 REG      -0.083400
     14 C           31.8870    16.3220    48.4320 c5         1 REG      -0.083400
     15 O1          35.6770    14.4010    44.1070 os         1 REG      -0.474000
     16 H1          30.4950    14.7260    49.0290 hc         1 REG       0.054950
     17 H2          31.8620    14.1270    48.0980 hc         1 REG       0.054950
     18 H3          33.5900    14.0020    42.4020 h1         1 REG       0.066200
     19 H4          32.8560    12.6830    43.3190 h1         1 REG       0.066200
     20 H5          32.9540    15.5630    44.1120 hn         1 REG       0.311500
     21 H6          35.3260    12.5240    43.3020 h1         1 REG       0.053700
     22 H7          34.2920    13.3190    46.1250 hc         1 REG       0.062200
     23 H8          34.4870    11.6660    45.5170 hc         1 REG       0.062200
     24 H9          36.9250    11.8930    45.3850 hc         1 REG       0.055200
     25 H10         36.6070    12.8970    46.8010 hc         1 REG       0.055200
     26 H11         37.6740    13.8130    44.2450 h1         1 REG       0.040700
     27 H12         37.0970    14.8890    45.5470 h1         1 REG       0.040700
     28 H13         31.6810    16.2880    45.5350 hn         1 REG       0.303500
     29 H14         29.5710    14.4450    46.7010 h1         1 REG       0.082700
     30 H15         29.3720    17.1110    46.2830 hc         1 REG       0.054950
     31 H16         28.8940    16.5300    47.8700 hc         1 REG       0.054950
     32 H17         31.4280    18.0510    47.1450 hc         1 REG       0.040450
     33 H18         30.5330    18.0640    48.6560 hc         1 REG       0.040450
     34 H19         32.8490    16.3530    47.9070 hc         1 REG       0.040450
     35 H20         32.1070    16.4810    49.4940 hc         1 REG       0.040450
@<TRIPOS>BOND
     1     1    11 1   
     2     1    14 1   
     3     1    16 1   
     4     1    17 1   
     5     2     4 1   
     6     2     9 2   
     7     2    10 1   
     8     3     4 1   
     9     3     5 1   
    10     3    18 1   
    11     3    19 1   
    12     4    20 1   
    13     5     6 1   
    14     5    15 1   
    15     5    21 1   
    16     6     7 1   
    17     6    22 1   
    18     6    23 1   
    19     7     8 1   
    20     7    24 1   
    21     7    25 1   
    22     8    15 1   
    23     8    26 1   
    24     8    27 1   
    25    10    11 1   
    26    10    28 1   
    27    11    12 1   
    28    11    29 1   
    29    12    13 1   
    30    12    30 1   
    31    12    31 1   
    32    13    14 1   
    33    13    32 1   
    34    13    33 1   
    35    14    34 1   
    36    14    35 1   
@<TRIPOS>SUBSTRUCTURE
     1 REG         1 TEMP              0 ****  ****    0 ROOT
