@<TRIPOS>MOLECULE
REL
   22    21     1     0     0
SMALL
No Charge or Current Charge


@<TRIPOS>ATOM
      1 O6A         -3.7700    -0.5020    -0.5880 o          1 REL      -0.707500
      2 C6          -2.8720     0.0880    -0.0010 c          1 REL       0.691000
      3 O6B         -2.9520     1.2520     0.3760 o          1 REL      -0.707500
      4 C5          -1.5020    -0.6700     0.1600 c3         1 REL      -0.019700
      5 O5          -1.4460    -1.8420    -0.7050 oh         1 REL      -0.758000
      6 C4          -0.2690     0.2570    -0.0940 c3         1 REL       0.158300
      7 O4          -0.3820     1.4290     0.7520 oh         1 REL      -0.792000
      8 C3           1.1070    -0.4320     0.1960 c3         1 REL       0.137300
      9 O3           1.4340    -0.1050     1.5520 oh         1 REL      -0.741000
     10 C2           2.2660     0.0010    -0.7540 c3         1 REL       0.033300
     11 O2           2.5510     1.4250    -0.6220 oh         1 REL      -0.691000
     12 C1           3.5110    -0.9030    -0.5130 c          1 REL       0.554900
     13 O1           4.6320    -0.4870    -0.2250 o          1 REL      -0.535100
     14 H5          -1.4660    -0.9960     1.2090 h1         1 REL       0.046700
     15 HO5         -2.3750    -1.9520    -1.0390 ho         1 REL       0.533000
     16 H4          -0.2960     0.5590    -1.1510 h1         1 REL       0.036700
     17 HO4         -1.3610     1.6600     0.7040 ho         1 REL       0.578000
     18 H3           0.9830    -1.5190     0.0860 h1         1 REL       0.077700
     19 HO3          0.7860     0.6450     1.6910 ho         1 REL       0.527000
     20 H2           1.9460    -0.2210    -1.7810 h1         1 REL       0.084700
     21 HO2          2.6500     1.5950     0.3440 ho         1 REL       0.512000
     22 H1           3.3260    -1.9950    -0.6270 h4         1 REL      -0.020800
@<TRIPOS>BOND
     1     1     2 1   
     2     2     3 1   
     3     2     4 1   
     4     4     5 1   
     5     4     6 1   
     6     4    14 1   
     7     5    15 1   
     8     6     7 1   
     9     6     8 1   
    10     6    16 1   
    11     7    17 1   
    12     8     9 1   
    13     8    10 1   
    14     8    18 1   
    15     9    19 1   
    16    10    11 1   
    17    10    12 1   
    18    10    20 1   
    19    11    21 1   
    20    12    13 2   
    21    12    22 1   
@<TRIPOS>SUBSTRUCTURE
     1 REL         1 TEMP              0 ****  ****    0 ROOT
