@<TRIPOS>MOLECULE
REL
   22    21     1     0     0
SMALL
bcc


@<TRIPOS>ATOM
      1 O6A         -3.6900    -0.4880    -0.6420 o          1 REL      -0.812800
      2 C6          -2.8120     0.1140    -0.0040 c          1 REL       0.901600
      3 O6B         -2.8830     1.2740     0.4700 o          1 REL      -0.812800
      4 C5          -1.4900    -0.6470     0.2230 c3         1 REL      -0.042900
      5 O5          -1.5060    -1.8580    -0.4810 oh         1 REL      -0.635800
      6 C4          -0.2870     0.2160    -0.2050 c3         1 REL       0.135100
      7 O4          -0.2880     1.4360     0.4930 oh         1 REL      -0.669800
      8 C3           1.0380    -0.4950     0.0910 c3         1 REL       0.114100
      9 O3           1.3300    -0.4470     1.4690 oh         1 REL      -0.618800
     10 C2           2.2120     0.0570    -0.7330 c3         1 REL       0.010100
     11 O2           2.4430     1.4260    -0.6040 oh         1 REL      -0.568800
     12 C1           3.4310    -0.7660    -0.4010 c          1 REL       0.554900
     13 O1           4.4570    -0.3100     0.0330 o          1 REL      -0.535100
     14 H5          -1.4020    -0.8350     1.3050 h1         1 REL       0.046700
     15 HO5         -2.3790    -1.8630    -0.9120 ho         1 REL       0.434000
     16 H4          -0.3630     0.3680    -1.2940 h1         1 REL       0.036700
     17 HO4         -1.2430     1.6430     0.6370 ho         1 REL       0.479000
     18 H3           0.9310    -1.5470    -0.1930 h1         1 REL       0.077700
     19 HO3          0.9660     0.3860     1.7990 ho         1 REL       0.428000
     20 H2           1.9840    -0.1400    -1.7890 h1         1 REL       0.084700
     21 HO2          2.7380     1.6120     0.2940 ho         1 REL       0.413000
     22 H1           3.3130    -1.8500    -0.5840 h4         1 REL      -0.020800
@<TRIPOS>BOND
     1     1     2 1   
     2     2     3 1   
     3     2     4 1   
     4     4     5 1   
     5     4     6 1   
     6     4    14 1   
     7     5    15 1   
     8     6     7 1   
     9     6     8 1   
    10     6    16 1   
    11     7    17 1   
    12     8     9 1   
    13     8    10 1   
    14     8    18 1   
    15     9    19 1   
    16    10    11 1   
    17    10    12 1   
    18    10    20 1   
    19    11    21 1   
    20    12    13 2   
    21    12    22 1   
@<TRIPOS>SUBSTRUCTURE
     1 REL         1 TEMP              0 ****  ****    0 ROOT
