@<TRIPOS>MOLECULE
REM
   94    97     1     0     0
SMALL
No Charge or Current Charge


@<TRIPOS>ATOM
      1 O41          5.1180    -0.2730     1.6570 o          1 REM      -0.519500
      2 S38          5.5120     0.2590     0.3460 s6         1 REM       1.027000
      3 O40          6.1030     1.6010     0.2730 o          1 REM      -0.519500
      4 C39          6.7060    -0.9340    -0.4250 c3         1 REM      -0.200000
      5 C44          7.0020    -0.5230    -1.8970 c3         1 REM      -0.088100
      6 C43          8.0320    -0.9020     0.3900 c3         1 REM      -0.088100
      7 C42          6.1320    -2.3820    -0.3970 c3         1 REM      -0.088100
      8 C37          4.0360     0.2530    -0.7120 c3         1 REM      -0.290400
      9 C1           2.7780     0.9750    -0.1240 c3         1 REM      -0.101700
     10 C4           2.9150     2.5210    -0.0800 c3         1 REM      -0.028100
     11 C5           1.6920     3.2030     0.5210 ca         1 REM      -0.089300
     12 C7           1.4970     3.2100     1.9160 ca         1 REM      -0.099500
     13 C9           0.3790     3.8560     2.4720 ca         1 REM      -0.113500
     14 C10         -0.5500     4.4990     1.6370 ca         1 REM      -0.109000
     15 C8          -0.3670     4.4850     0.2450 ca         1 REM      -0.113500
     16 C6           0.7500     3.8410    -0.3120 ca         1 REM      -0.099500
     17 C2           1.5210     0.5680    -0.9250 c          1 REM       0.619100
     18 O3           1.3700     0.8550    -2.1050 o          1 REM      -0.621100
     19 N11          0.5850    -0.1570    -0.2180 ns         1 REM      -0.485900
     20 C12         -0.6260    -0.7780    -0.8020 c3         1 REM       0.024700
     21 C15         -0.3540    -2.2510    -1.2100 c3         1 REM      -0.021100
     22 C16          0.8360    -2.4360    -2.1190 cc         1 REM      -0.203300
     23 C18          2.0660    -2.9830    -1.8480 cd         1 REM       0.225900
     24 N20          2.8690    -2.9470    -2.9710 nd         1 REM      -0.690000
     25 C19          2.1400    -2.3800    -3.9220 cc         1 REM       0.397400
     26 N17          0.8910    -2.0640    -3.4450 na         1 REM      -0.284500
     27 C13         -1.8100    -0.7080     0.2000 c          1 REM       0.593100
     28 O14         -1.6570    -0.5270     1.4020 o          1 REM      -0.582100
     29 N24         -3.0540    -0.8770    -0.3690 ns         1 REM      -0.504900
     30 C21         -4.3330    -0.9260     0.3570 c3         1 REM       0.080700
     31 C22         -5.1840    -2.1440    -0.1250 c3         1 REM       0.124300
     32 O25         -5.3510    -2.0710    -1.5600 oh         1 REM      -0.648000
     33 C23         -4.5620    -3.5250     0.2800 c3         1 REM       0.170300
     34 C34         -5.3470    -4.7260    -0.2770 cx         1 REM      -0.162700
     35 C36         -5.4260    -6.0680     0.4230 cx         1 REM      -0.124900
     36 C35         -6.6570    -5.1910     0.3240 cx         1 REM      -0.124900
     37 O26         -4.4580    -3.6120     1.7080 oh         1 REM      -0.639000
     38 C27         -5.0940     0.4220     0.2110 c3         1 REM      -0.086400
     39 C28         -4.4200     1.6740     0.8580 c6         1 REM      -0.060700
     40 C33         -5.1570     2.9770     0.4390 c6         1 REM      -0.071900
     41 C32         -4.4910     4.2310     1.0580 c6         1 REM      -0.074400
     42 C31         -4.4180     4.1240     2.6000 c6         1 REM      -0.074400
     43 C30         -3.6950     2.8270     3.0360 c6         1 REM      -0.074400
     44 C29         -4.3580     1.5750     2.4120 c6         1 REM      -0.071900
     45 H44          7.3870     0.5030    -1.9550 hc         1 REM       0.055700
     46 H44A         7.7540    -1.1860    -2.3420 hc         1 REM       0.055700
     47 H44B         6.1020    -0.5850    -2.5210 hc         1 REM       0.055700
     48 H43          7.8610    -1.1880     1.4360 hc         1 REM       0.055700
     49 H43A         8.7680    -1.5990    -0.0300 hc         1 REM       0.055700
     50 H43B         8.4790     0.0990     0.3820 hc         1 REM       0.055700
     51 H42          5.2280    -2.4740    -1.0110 hc         1 REM       0.055700
     52 H42A         6.8640    -3.0970    -0.7910 hc         1 REM       0.055700
     53 H42B         5.8820    -2.6930     0.6250 hc         1 REM       0.055700
     54 H37          4.3270     0.6980    -1.6690 h1         1 REM       0.110200
     55 H37A         3.7980    -0.8030    -0.8750 h1         1 REM       0.110200
     56 H1           2.6390     0.6210     0.9050 hc         1 REM       0.080700
     57 H4           3.7950     2.7990     0.5110 hc         1 REM       0.069700
     58 H4A          3.1040     2.8970    -1.0940 hc         1 REM       0.069700
     59 H7           2.2160     2.7220     2.5700 ha         1 REM       0.119500
     60 H9           0.2360     3.8620     3.5500 ha         1 REM       0.111500
     61 H10         -1.4090     5.0050     2.0690 ha         1 REM       0.112000
     62 H8          -1.0890     4.9790    -0.4030 ha         1 REM       0.111500
     63 H6           0.8850     3.8390    -1.3920 ha         1 REM       0.119500
     64 HN11         0.7670    -0.3030     0.7690 hn         1 REM       0.339500
     65 H12         -0.9230    -0.2090    -1.6920 h1         1 REM       0.080700
     66 H15         -0.2040    -2.8450    -0.2990 hc         1 REM       0.068200
     67 H15A        -1.2480    -2.6630    -1.6940 hc         1 REM       0.068200
     68 H18          2.4170    -3.3950    -0.9100 h4         1 REM       0.038100
     69 H19          2.4450    -2.1810    -4.9430 h5         1 REM       0.058100
     70 HN17         0.1630    -1.6150    -3.9860 hn         1 REM       0.359000
     71 HN24        -3.0880    -1.0270    -1.3710 hn         1 REM       0.309500
     72 H21         -4.1290    -1.0810     1.4240 h1         1 REM       0.100700
     73 H22         -6.1670    -2.0780     0.3630 h1         1 REM       0.077700
     74 HO25        -6.0320    -2.7330    -1.8080 ho         1 REM       0.437000
     75 H23         -3.5530    -3.5690    -0.1530 h1         1 REM       0.074700
     76 H34         -5.2690    -4.7800    -1.3610 hc         1 REM       0.085700
     77 H36         -5.3930    -6.9610    -0.1970 hc         1 REM       0.073700
     78 H36A        -4.9600    -6.1870     1.3990 hc         1 REM       0.073700
     79 H35         -7.0160    -4.7120     1.2330 hc         1 REM       0.073700
     80 H35A        -7.4440    -5.5010    -0.3590 hc         1 REM       0.073700
     81 HO26        -5.2280    -4.1360     2.0100 ho         1 REM       0.440000
     82 H27         -5.2500     0.6090    -0.8590 hc         1 REM       0.050200
     83 H27A        -6.0970     0.3010     0.6390 hc         1 REM       0.050200
     84 H28         -3.3940     1.7260     0.4660 hc         1 REM       0.051700
     85 H33         -5.1600     3.0710    -0.6550 hc         1 REM       0.039450
     86 H33A        -6.2100     2.9290     0.7510 hc         1 REM       0.039450
     87 H32         -3.4800     4.3530     0.6450 hc         1 REM       0.040950
     88 H32A        -5.0540     5.1310     0.7730 hc         1 REM       0.040950
     89 H31         -3.8970     4.9990     3.0110 hc         1 REM       0.036700
     90 H31A        -5.4330     4.1400     3.0200 hc         1 REM       0.036700
     91 H30         -2.6400     2.8680     2.7370 hc         1 REM       0.040950
     92 H30A        -3.7040     2.7460     4.1310 hc         1 REM       0.040950
     93 H29         -5.3720     1.4560     2.8190 hc         1 REM       0.039450
     94 H29A        -3.7940     0.6870     2.7220 hc         1 REM       0.039450
@<TRIPOS>BOND
     1     1     2 2   
     2     2     3 2   
     3     2     4 1   
     4     2     8 1   
     5     4     5 1   
     6     4     6 1   
     7     4     7 1   
     8     5    45 1   
     9     5    46 1   
    10     5    47 1   
    11     6    48 1   
    12     6    49 1   
    13     6    50 1   
    14     7    51 1   
    15     7    52 1   
    16     7    53 1   
    17     8     9 1   
    18     8    54 1   
    19     8    55 1   
    20     9    10 1   
    21     9    17 1   
    22     9    56 1   
    23    10    11 1   
    24    10    57 1   
    25    10    58 1   
    26    11    12 ar  
    27    11    16 ar  
    28    12    13 ar  
    29    12    59 1   
    30    13    14 ar  
    31    13    60 1   
    32    14    15 ar  
    33    14    61 1   
    34    15    16 ar  
    35    15    62 1   
    36    16    63 1   
    37    17    18 2   
    38    17    19 1   
    39    19    20 1   
    40    19    64 1   
    41    20    21 1   
    42    20    27 1   
    43    20    65 1   
    44    21    22 1   
    45    21    66 1   
    46    21    67 1   
    47    22    23 2   
    48    22    26 1   
    49    23    24 1   
    50    23    68 1   
    51    24    25 2   
    52    25    26 1   
    53    25    69 1   
    54    26    70 1   
    55    27    28 2   
    56    27    29 1   
    57    29    30 1   
    58    29    71 1   
    59    30    31 1   
    60    30    38 1   
    61    30    72 1   
    62    31    32 1   
    63    31    33 1   
    64    31    73 1   
    65    32    74 1   
    66    33    34 1   
    67    33    37 1   
    68    33    75 1   
    69    34    35 1   
    70    34    36 1   
    71    34    76 1   
    72    35    36 1   
    73    35    77 1   
    74    35    78 1   
    75    36    79 1   
    76    36    80 1   
    77    37    81 1   
    78    38    39 1   
    79    38    82 1   
    80    38    83 1   
    81    39    40 1   
    82    39    44 1   
    83    39    84 1   
    84    40    41 1   
    85    40    85 1   
    86    40    86 1   
    87    41    42 1   
    88    41    87 1   
    89    41    88 1   
    90    42    43 1   
    91    42    89 1   
    92    42    90 1   
    93    43    44 1   
    94    43    91 1   
    95    43    92 1   
    96    44    93 1   
    97    44    94 1   
@<TRIPOS>SUBSTRUCTURE
     1 REM         1 TEMP              0 ****  ****    0 ROOT
