@<TRIPOS>MOLECULE
REM
   94    97     1     0     0
SMALL
bcc


@<TRIPOS>ATOM
      1 O41          5.1250     0.3370     1.4700 o          1 REM      -0.590300
      2 S38          5.3300     0.4480     0.0210 s6         1 REM       0.947000
      3 O40          5.9260     1.6900    -0.4830 o          1 REM      -0.590300
      4 C39          6.3790    -0.9490    -0.5270 c3         1 REM      -0.089200
      5 C44          6.3770    -0.9950    -2.0520 c3         1 REM      -0.088100
      6 C43          7.7760    -0.6390     0.0070 c3         1 REM      -0.088100
      7 C42          5.8430    -2.2440     0.0700 c3         1 REM      -0.088100
      8 C37          3.7360     0.2160    -0.7860 c3         1 REM      -0.179600
      9 C1           2.6080     0.9700    -0.0740 c3         1 REM      -0.101700
     10 C4           2.7750     2.4940    -0.1040 c3         1 REM      -0.028100
     11 C5           1.6190     3.2060     0.5420 ca         1 REM      -0.089300
     12 C7           1.5080     3.2480     1.9310 ca         1 REM      -0.117500
     13 C9           0.4510     3.9080     2.5410 ca         1 REM      -0.131500
     14 C10         -0.5150     4.5390     1.7680 ca         1 REM      -0.127000
     15 C8          -0.4190     4.4970     0.3840 ca         1 REM      -0.131500
     16 C6           0.6400     3.8340    -0.2230 ca         1 REM      -0.117500
     17 C2           1.3350     0.5610    -0.8060 c          1 REM       0.686100
     18 O3           1.1020     0.9640    -1.9350 o          1 REM      -0.621100
     19 N11          0.5420    -0.2950    -0.1410 ns         1 REM      -0.552900
     20 C12         -0.5760    -0.9600    -0.7530 c3         1 REM       0.024700
     21 C15         -0.2320    -2.4190    -1.1290 c3         1 REM      -0.021100
     22 C16          1.0260    -2.5320    -1.9080 cc         1 REM      -0.217900
     23 C18          2.2300    -3.1010    -1.5940 cd         1 REM       0.291200
     24 N20          3.1290    -2.9250    -2.6100 nd         1 REM      -0.690000
     25 C19          2.4820    -2.2540    -3.5290 cc         1 REM       0.397400
     26 N17          1.2120    -2.0020    -3.1540 na         1 REM      -0.284900
     27 C13         -1.7570    -0.9890     0.2130 c          1 REM       0.660100
     28 O14         -1.5850    -1.1940     1.4030 o          1 REM      -0.582100
     29 N24         -2.9520    -0.8500    -0.3800 ns         1 REM      -0.571900
     30 C21         -4.2360    -0.9000     0.2960 c3         1 REM       0.080700
     31 C22         -5.0740    -2.0720    -0.2410 c3         1 REM       0.101100
     32 O25         -5.2550    -1.9820    -1.6360 oh         1 REM      -0.585800
     33 C23         -4.5220    -3.4470     0.1700 c3         1 REM       0.147100
     34 C34         -5.3550    -4.5690    -0.4200 cx         1 REM      -0.162700
     35 C36         -5.3830    -5.9250     0.2090 cx         1 REM      -0.124900
     36 C35         -6.6020    -5.0490     0.2570 cx         1 REM      -0.124900
     37 O26         -4.3990    -3.5380     1.5690 oh         1 REM      -0.576800
     38 C27         -4.9710     0.4300     0.1430 c3         1 REM      -0.086400
     39 C28         -4.2930     1.6220     0.8160 c6         1 REM      -0.060700
     40 C33         -5.0370     2.9130     0.4680 c6         1 REM      -0.071900
     41 C32         -4.4150     4.1380     1.1280 c6         1 REM      -0.074400
     42 C31         -4.3250     3.9670     2.6410 c6         1 REM      -0.074400
     43 C30         -3.5830     2.6860     3.0020 c6         1 REM      -0.074400
     44 C29         -4.2060     1.4640     2.3350 c6         1 REM      -0.071900
     45 H44          6.6730    -0.0430    -2.4930 hc         1 REM       0.055700
     46 H44A         7.0990    -1.7470    -2.3720 hc         1 REM       0.055700
     47 H44B         5.4080    -1.2880    -2.4580 hc         1 REM       0.055700
     48 H43          7.7850    -0.5140     1.0900 hc         1 REM       0.055700
     49 H43A         8.4260    -1.4810    -0.2320 hc         1 REM       0.055700
     50 H43B         8.2010     0.2510    -0.4530 hc         1 REM       0.055700
     51 H42          4.8300    -2.4710    -0.2640 hc         1 REM       0.055700
     52 H42A         6.4810    -3.0630    -0.2650 hc         1 REM       0.055700
     53 H42B         5.8580    -2.2310     1.1580 hc         1 REM       0.055700
     54 H37          3.8490     0.5460    -1.8190 h1         1 REM       0.110200
     55 H37A         3.5260    -0.8550    -0.7890 h1         1 REM       0.110200
     56 H1           2.5630     0.6310     0.9650 hc         1 REM       0.080700
     57 H4           3.6950     2.7650     0.4150 hc         1 REM       0.069700
     58 H4A          2.8930     2.8250    -1.1380 hc         1 REM       0.069700
     59 H7           2.2650     2.7680     2.5410 ha         1 REM       0.137500
     60 H9           0.3850     3.9370     3.6220 ha         1 REM       0.129500
     61 H10         -1.3350     5.0620     2.2430 ha         1 REM       0.130000
     62 H8          -1.1670     4.9870    -0.2260 ha         1 REM       0.129500
     63 H6           0.7090     3.8080    -1.3030 ha         1 REM       0.137500
     64 HN11         0.8050    -0.5910     0.7870 hn         1 REM       0.339500
     65 H12         -0.8360    -0.4060    -1.6560 h1         1 REM       0.080700
     66 H15         -0.1170    -3.0060    -0.2160 hc         1 REM       0.068200
     67 H15A        -1.0770    -2.8460    -1.6760 hc         1 REM       0.068200
     68 H18          2.4860    -3.6260    -0.6850 h4         1 REM       0.038100
     69 H19          2.8780    -1.9300    -4.4780 h5         1 REM       0.058100
     70 HN17         0.5360    -1.4760    -3.6850 hn         1 REM       0.308700
     71 HN24        -2.9570    -0.5470    -1.3420 hn         1 REM       0.309500
     72 H21         -4.0380    -1.0860     1.3510 h1         1 REM       0.100700
     73 H22         -6.0770    -1.9760     0.1930 h1         1 REM       0.077700
     74 HO25        -4.4430    -2.2540    -2.0770 ho         1 REM       0.398000
     75 H23         -3.4990    -3.5470    -0.2160 h1         1 REM       0.074700
     76 H34         -5.3900    -4.5630    -1.5030 hc         1 REM       0.085700
     77 H36         -5.3960    -6.7870    -0.4460 hc         1 REM       0.073700
     78 H36A        -4.8390    -6.0750     1.1330 hc         1 REM       0.073700
     79 H35         -6.8790    -4.6260     1.2160 hc         1 REM       0.073700
     80 H35A        -7.4520    -5.3040    -0.3620 hc         1 REM       0.073700
     81 HO26        -5.2550    -3.3500     1.9700 ho         1 REM       0.401000
     82 H27         -5.1100     0.6420    -0.9220 hc         1 REM       0.050200
     83 H27A        -5.9760     0.3120     0.5610 hc         1 REM       0.050200
     84 H28         -3.2710     1.7170     0.4270 hc         1 REM       0.051700
     85 H33         -5.0600     3.0430    -0.6190 hc         1 REM       0.039450
     86 H33A        -6.0820     2.8170     0.7890 hc         1 REM       0.039450
     87 H32         -3.4090     4.2940     0.7230 hc         1 REM       0.040950
     88 H32A        -4.9910     5.0320     0.8780 hc         1 REM       0.040950
     89 H31         -3.8310     4.8320     3.0920 hc         1 REM       0.036700
     90 H31A        -5.3370     3.9320     3.0600 hc         1 REM       0.036700
     91 H30         -2.5390     2.7730     2.6820 hc         1 REM       0.040950
     92 H30A        -3.5660     2.5510     4.0860 hc         1 REM       0.040950
     93 H29         -5.2160     1.3030     2.7330 hc         1 REM       0.039450
     94 H29A        -3.6250     0.5770     2.5970 hc         1 REM       0.039450
@<TRIPOS>BOND
     1     1     2 2   
     2     2     3 2   
     3     2     4 1   
     4     2     8 1   
     5     4     5 1   
     6     4     6 1   
     7     4     7 1   
     8     5    45 1   
     9     5    46 1   
    10     5    47 1   
    11     6    48 1   
    12     6    49 1   
    13     6    50 1   
    14     7    51 1   
    15     7    52 1   
    16     7    53 1   
    17     8     9 1   
    18     8    54 1   
    19     8    55 1   
    20     9    10 1   
    21     9    17 1   
    22     9    56 1   
    23    10    11 1   
    24    10    57 1   
    25    10    58 1   
    26    11    12 ar  
    27    11    16 ar  
    28    12    13 ar  
    29    12    59 1   
    30    13    14 ar  
    31    13    60 1   
    32    14    15 ar  
    33    14    61 1   
    34    15    16 ar  
    35    15    62 1   
    36    16    63 1   
    37    17    18 2   
    38    17    19 1   
    39    19    20 1   
    40    19    64 1   
    41    20    21 1   
    42    20    27 1   
    43    20    65 1   
    44    21    22 1   
    45    21    66 1   
    46    21    67 1   
    47    22    23 2   
    48    22    26 1   
    49    23    24 1   
    50    23    68 1   
    51    24    25 2   
    52    25    26 1   
    53    25    69 1   
    54    26    70 1   
    55    27    28 2   
    56    27    29 1   
    57    29    30 1   
    58    29    71 1   
    59    30    31 1   
    60    30    38 1   
    61    30    72 1   
    62    31    32 1   
    63    31    33 1   
    64    31    73 1   
    65    32    74 1   
    66    33    34 1   
    67    33    37 1   
    68    33    75 1   
    69    34    35 1   
    70    34    36 1   
    71    34    76 1   
    72    35    36 1   
    73    35    77 1   
    74    35    78 1   
    75    36    79 1   
    76    36    80 1   
    77    37    81 1   
    78    38    39 1   
    79    38    82 1   
    80    38    83 1   
    81    39    40 1   
    82    39    44 1   
    83    39    84 1   
    84    40    41 1   
    85    40    85 1   
    86    40    86 1   
    87    41    42 1   
    88    41    87 1   
    89    41    88 1   
    90    42    43 1   
    91    42    89 1   
    92    42    90 1   
    93    43    44 1   
    94    43    91 1   
    95    43    92 1   
    96    44    93 1   
    97    44    94 1   
@<TRIPOS>SUBSTRUCTURE
     1 REM         1 TEMP              0 ****  ****    0 ROOT
