@<TRIPOS>MOLECULE
REN
   47    49     1     0     0
SMALL
abcg2


@<TRIPOS>ATOM
      1 C2          -2.3320    -1.2200     0.5400 ca         1 REN      -0.119000
      2 C3          -3.6870    -1.4240     0.7100 ca         1 REN       0.118100
      3 C5          -4.5900    -0.4410     0.2760 ca         1 REN       0.049100
      4 C8          -4.1000     0.7100    -0.3130 ca         1 REN      -0.153000
      5 C9          -2.7280     0.9140    -0.4850 ca         1 REN      -0.075300
      6 C10         -2.2600     2.1970    -1.1200 c6         1 REN      -0.066100
      7 C11         -0.7820     2.1300    -1.4900 c6         1 REN       0.164800
      8 N12          0.0280     1.5410    -0.4400 n3         1 REN      -0.702600
      9 C14         -0.3310     0.1410    -0.2770 c6         1 REN       0.232800
     10 C16          0.5440    -0.5480     0.7750 c3         1 REN      -0.021100
     11 C17          2.0190    -0.3740     0.5310 ca         1 REN      -0.052300
     12 C25          2.8460     0.1870     1.4910 ca         1 REN      -0.114000
     13 C24          4.2160     0.3260     1.2720 ca         1 REN      -0.150000
     14 C21          4.7770    -0.1000     0.0810 ca         1 REN       0.043100
     15 O22          6.0850    -0.0180    -0.2530 os         1 REN      -0.368100
     16 C23          6.9860     0.5230     0.6900 c3         1 REN       0.157900
     17 C19          3.9510    -0.6810    -0.8970 ca         1 REN       0.122100
     18 O20          4.4610    -1.1190    -2.0690 oh         1 REN      -0.538100
     19 C18          2.5960    -0.8130    -0.6630 ca         1 REN      -0.116000
     20 C1          -1.8280    -0.0560    -0.0470 ca         1 REN      -0.100300
     21 C13         -0.0000     2.3210     0.7810 c3         1 REN       0.151100
     22 O6          -5.8940    -0.7290     0.4820 os         1 REN      -0.366100
     23 C7          -6.8660     0.2000     0.0480 c3         1 REN       0.156900
     24 O4          -4.1150    -2.5670     1.2890 oh         1 REN      -0.536100
     25 H2          -1.6660    -2.0040     0.8790 ha         1 REN       0.130000
     26 H8          -4.7800     1.4800    -0.6570 ha         1 REN       0.114000
     27 H10         -2.8570     2.4220    -2.0070 hc         1 REN       0.050700
     28 H10A        -2.4300     3.0250    -0.4250 hc         1 REN       0.050700
     29 H11         -0.6530     1.5280    -2.3940 h1         1 REN       0.055200
     30 H11A        -0.4050     3.1300    -1.7190 h1         1 REN       0.055200
     31 H14         -0.0940    -0.3370    -1.2370 h1         1 REN       0.069700
     32 H16          0.2860    -0.1940     1.7760 hc         1 REN       0.052200
     33 H16A         0.3170    -1.6160     0.7660 hc         1 REN       0.052200
     34 H25          2.4310     0.5260     2.4320 ha         1 REN       0.110000
     35 H24          4.8270     0.7740     2.0450 ha         1 REN       0.114000
     36 H23          7.9730     0.4890     0.2360 h1         1 REN       0.039700
     37 H23A         6.7440     1.5620     0.9310 h1         1 REN       0.039700
     38 H23B         7.0010    -0.0580     1.6160 h1         1 REN       0.039700
     39 HO20         5.4150    -0.9760    -2.0880 ho         1 REN       0.479000
     40 H18          1.9840    -1.2720    -1.4320 ha         1 REN       0.127000
     41 H13         -0.9350     2.2530     1.3560 h1         1 REN       0.032033
     42 H13A         0.8140     2.0300     1.4440 h1         1 REN       0.032033
     43 H13B         0.1560     3.3720     0.5330 h1         1 REN       0.032033
     44 H7          -6.8140     0.3640    -1.0310 h1         1 REN       0.041367
     45 H7A         -7.8350    -0.2260     0.2940 h1         1 REN       0.041367
     46 H7B         -6.7640     1.1620     0.5570 h1         1 REN       0.041367
     47 HO4         -5.0790    -2.5790     1.3240 ho         1 REN       0.480000
@<TRIPOS>BOND
     1     1     2 ar  
     2     1    20 ar  
     3     1    25 1   
     4     2     3 ar  
     5     2    24 1   
     6     3     4 ar  
     7     3    22 1   
     8     4     5 ar  
     9     4    26 1   
    10     5     6 1   
    11     5    20 ar  
    12     6     7 1   
    13     6    27 1   
    14     6    28 1   
    15     7     8 1   
    16     7    29 1   
    17     7    30 1   
    18     8     9 1   
    19     8    21 1   
    20     9    10 1   
    21     9    20 1   
    22     9    31 1   
    23    10    11 1   
    24    10    32 1   
    25    10    33 1   
    26    11    12 ar  
    27    11    19 ar  
    28    12    13 ar  
    29    12    34 1   
    30    13    14 ar  
    31    13    35 1   
    32    14    15 1   
    33    14    17 ar  
    34    15    16 1   
    35    16    36 1   
    36    16    37 1   
    37    16    38 1   
    38    17    18 1   
    39    17    19 ar  
    40    18    39 1   
    41    19    40 1   
    42    21    41 1   
    43    21    42 1   
    44    21    43 1   
    45    22    23 1   
    46    23    44 1   
    47    23    45 1   
    48    23    46 1   
    49    24    47 1   
@<TRIPOS>SUBSTRUCTURE
     1 REN         1 TEMP              0 ****  ****    0 ROOT
