@<TRIPOS>MOLECULE
REN
   47    49     1     0     0
SMALL
No Charge or Current Charge


@<TRIPOS>ATOM
      1 C2          -2.3770    -1.2570     0.6110 ca         1 REN      -0.119000
      2 C3          -3.7550    -1.4040     0.8280 ca         1 REN       0.118100
      3 C5          -4.6610    -0.4300     0.3720 ca         1 REN       0.049100
      4 C8          -4.1690     0.7000    -0.3130 ca         1 REN      -0.153000
      5 C9          -2.7870     0.8520    -0.5380 ca         1 REN      -0.075300
      6 C10         -2.3000     2.1100    -1.2680 c6         1 REN      -0.066100
      7 C11         -0.7960     2.0800    -1.6320 c6         1 REN       0.164800
      8 N12          0.0250     1.4900    -0.5460 n3         1 REN      -0.702600
      9 C14         -0.3500     0.0560    -0.3500 c6         1 REN       0.232800
     10 C16          0.5830    -0.6860     0.6700 c3         1 REN      -0.021100
     11 C17          2.0810    -0.4600     0.4580 ca         1 REN      -0.052300
     12 C25          2.8870     0.0030     1.5180 ca         1 REN      -0.114000
     13 C24          4.2680     0.2040     1.3360 ca         1 REN      -0.150000
     14 C21          4.8600    -0.0640     0.0830 ca         1 REN       0.043100
     15 O22          6.2140     0.1140    -0.1540 os         1 REN      -0.368100
     16 C23          7.1140     0.5920     0.8640 c3         1 REN       0.157900
     17 C19          4.0550    -0.5360    -0.9750 ca         1 REN       0.122100
     18 O20          4.6240    -0.8030    -2.1860 oh         1 REN      -0.538100
     19 C18          2.6780    -0.7350    -0.7880 ca         1 REN      -0.116000
     20 C1          -1.8690    -0.1210    -0.0650 ca         1 REN      -0.100300
     21 C13          0.0270     2.3070     0.6950 c3         1 REN       0.151100
     22 O6          -6.0110    -0.6250     0.6150 os         1 REN      -0.366100
     23 C7          -7.0130     0.3170     0.1860 c3         1 REN       0.156900
     24 O4          -4.2250    -2.5050     1.4850 oh         1 REN      -0.536100
     25 H2          -1.7200    -2.0410     0.9710 ha         1 REN       0.130000
     26 H8          -4.8430     1.4700    -0.6770 ha         1 REN       0.114000
     27 H10         -2.8880     2.2650    -2.1820 hc         1 REN       0.050700
     28 H10A        -2.4970     2.9840    -0.6320 hc         1 REN       0.050700
     29 H11         -0.6710     1.4890    -2.5520 h1         1 REN       0.055200
     30 H11A        -0.4580     3.1000    -1.8700 h1         1 REN       0.055200
     31 H14         -0.1790    -0.4580    -1.3080 h1         1 REN       0.069700
     32 H16          0.2990    -0.4050     1.6910 hc         1 REN       0.052200
     33 H16A         0.4100    -1.7650     0.6010 hc         1 REN       0.052200
     34 H25          2.4430     0.2120     2.4890 ha         1 REN       0.110000
     35 H24          4.8560     0.5650     2.1750 ha         1 REN       0.114000
     36 H23          8.1340     0.6610     0.4660 h1         1 REN       0.039700
     37 H23A         6.8160     1.5900     1.2110 h1         1 REN       0.039700
     38 H23B         7.1290    -0.0900     1.7230 h1         1 REN       0.039700
     39 HO20         5.5810    -0.5960    -2.0930 ho         1 REN       0.479000
     40 H18          2.0770    -1.1030    -1.6150 ha         1 REN       0.127000
     41 H13         -0.9530     2.2870     1.1900 h1         1 REN       0.032033
     42 H13A         0.7760     1.9420     1.4090 h1         1 REN       0.032033
     43 H13B         0.2740     3.3530     0.4670 h1         1 REN       0.032033
     44 H7          -7.0000     0.4300    -0.9060 h1         1 REN       0.041367
     45 H7A         -8.0110    -0.0300     0.4790 h1         1 REN       0.041367
     46 H7B         -6.8460     1.3000     0.6440 h1         1 REN       0.041367
     47 HO4         -5.2030    -2.4060     1.5250 ho         1 REN       0.480000
@<TRIPOS>BOND
     1     1     2 ar  
     2     1    20 ar  
     3     1    25 1   
     4     2     3 ar  
     5     2    24 1   
     6     3     4 ar  
     7     3    22 1   
     8     4     5 ar  
     9     4    26 1   
    10     5     6 1   
    11     5    20 ar  
    12     6     7 1   
    13     6    27 1   
    14     6    28 1   
    15     7     8 1   
    16     7    29 1   
    17     7    30 1   
    18     8     9 1   
    19     8    21 1   
    20     9    10 1   
    21     9    20 1   
    22     9    31 1   
    23    10    11 1   
    24    10    32 1   
    25    10    33 1   
    26    11    12 ar  
    27    11    19 ar  
    28    12    13 ar  
    29    12    34 1   
    30    13    14 ar  
    31    13    35 1   
    32    14    15 1   
    33    14    17 ar  
    34    15    16 1   
    35    16    36 1   
    36    16    37 1   
    37    16    38 1   
    38    17    18 1   
    39    17    19 ar  
    40    18    39 1   
    41    19    40 1   
    42    21    41 1   
    43    21    42 1   
    44    21    43 1   
    45    22    23 1   
    46    23    44 1   
    47    23    45 1   
    48    23    46 1   
    49    24    47 1   
@<TRIPOS>SUBSTRUCTURE
     1 REN         1 TEMP              0 ****  ****    0 ROOT
