@<TRIPOS>MOLECULE
RER
   26    26     1     0     0
SMALL
abcg2


@<TRIPOS>ATOM
      1 C1           2.3540    14.4920     6.1380 c6         1 RER       0.397300
      2 C2           2.4970    14.0560     7.5940 c6         1 RER      -0.135400
      3 C3           3.0800    12.6520     7.7900 c6         1 RER       0.159200
      4 N3           3.3820    12.5080     9.2100 n8         1 RER      -1.010200
      5 C3A          2.0780    11.5490     7.4520 c3         1 RER      -0.089100
      6 C4           4.3330    12.5200     6.8860 c6         1 RER       0.103300
      7 O4           5.3930    13.3300     7.3470 oh         1 RER      -0.701000
      8 C5           4.0200    12.9330     5.4500 c6         1 RER       0.185300
      9 O5           3.5110    14.2590     5.4040 os         1 RER      -0.433000
     10 C5A          5.2260    12.8820     4.5330 c3         1 RER      -0.083100
     11 O1           1.2810    13.8740     5.4690 oh         1 RER      -0.692000
     12 H1           2.2210    15.5820     6.1130 h2         1 RER       0.071700
     13 H21C         3.1610    14.7790     8.0780 hc         1 RER       0.063200
     14 H22C         1.5360    14.1420     8.1090 hc         1 RER       0.063200
     15 HO1          0.5690    13.7070     6.0940 ho         1 RER       0.455000
     16 H31N         3.7920    11.5980     9.3930 hn         1 RER       0.400000
     17 H32N         4.0600    13.1990     9.5090 hn         1 RER       0.400000
     18 H3A1         1.7760    11.5410     6.4080 hc         1 RER       0.044033
     19 H3A2         2.5070    10.5690     7.6750 hc         1 RER       0.044033
     20 H3A3         1.1780    11.6610     8.0590 hc         1 RER       0.044033
     21 H4           4.6340    11.4610     6.8670 h1         1 RER       0.033700
     22 HO4          5.7880    12.9070     8.1140 ho         1 RER       0.491000
     23 H5           3.2760    12.2300     5.0580 h1         1 RER       0.049700
     24 H5A1         4.9380    13.1140     3.5080 hc         1 RER       0.046700
     25 H5A2         6.0030    13.5820     4.8380 hc         1 RER       0.046700
     26 H5A3         5.6540    11.8790     4.5360 hc         1 RER       0.046700
@<TRIPOS>BOND
     1     1     2 1   
     2     1     9 1   
     3     1    11 1   
     4     1    12 1   
     5     2     3 1   
     6     2    13 1   
     7     2    14 1   
     8     3     4 1   
     9     3     5 1   
    10     3     6 1   
    11     4    16 1   
    12     4    17 1   
    13     5    18 1   
    14     5    19 1   
    15     5    20 1   
    16     6     7 1   
    17     6     8 1   
    18     6    21 1   
    19     7    22 1   
    20     8     9 1   
    21     8    10 1   
    22     8    23 1   
    23    10    24 1   
    24    10    25 1   
    25    10    26 1   
    26    11    15 1   
@<TRIPOS>SUBSTRUCTURE
     1 RER         1 TEMP              0 ****  ****    0 ROOT
