@<TRIPOS>MOLECULE
RER
   26    26     1     0     0
SMALL
No Charge or Current Charge


@<TRIPOS>ATOM
      1 C1           2.3240    14.5020     6.1200 c6         1 RER       0.397300
      2 C2           2.4010    14.0730     7.6130 c6         1 RER      -0.135400
      3 C3           3.0220    12.6560     7.8480 c6         1 RER       0.159200
      4 N3           3.3480    12.5470     9.2850 n8         1 RER      -1.010200
      5 C3A          2.0200    11.5010     7.5340 c3         1 RER      -0.089100
      6 C4           4.3520    12.5160     7.0140 c6         1 RER       0.103300
      7 O4           5.4060    13.3180     7.6130 oh         1 RER      -0.701000
      8 C5           4.0720    12.9150     5.5230 c6         1 RER       0.185300
      9 O5           3.5810    14.2740     5.4540 os         1 RER      -0.433000
     10 C5A          5.3280    12.8400     4.6170 c3         1 RER      -0.083100
     11 O1           1.3090    13.7970     5.4090 oh         1 RER      -0.692000
     12 H1           2.1010    15.5810     6.0810 h2         1 RER       0.071700
     13 H21C         3.0070    14.8260     8.1340 hc         1 RER       0.063200
     14 H22C         1.4040    14.1330     8.0690 hc         1 RER       0.063200
     15 HO1          0.4600    14.0770     5.8120 ho         1 RER       0.455000
     16 H31N         3.4130    11.5550     9.5290 hn         1 RER       0.400000
     17 H32N         4.3240    12.8660     9.3480 hn         1 RER       0.400000
     18 H3A1         1.7420    11.4590     6.4760 hc         1 RER       0.044033
     19 H3A2         2.4480    10.5230     7.7850 hc         1 RER       0.044033
     20 H3A3         1.0920    11.6100     8.1080 hc         1 RER       0.044033
     21 H4           4.6590    11.4590     7.0270 h1         1 RER       0.033700
     22 HO4          6.1740    13.2930     7.0010 ho         1 RER       0.491000
     23 H5           3.3230    12.2350     5.0920 h1         1 RER       0.049700
     24 H5A1         5.0640    13.0360     3.5710 hc         1 RER       0.046700
     25 H5A2         6.0890    13.5730     4.9090 hc         1 RER       0.046700
     26 H5A3         5.7840    11.8430     4.6590 hc         1 RER       0.046700
@<TRIPOS>BOND
     1     1     2 1   
     2     1     9 1   
     3     1    11 1   
     4     1    12 1   
     5     2     3 1   
     6     2    13 1   
     7     2    14 1   
     8     3     4 1   
     9     3     5 1   
    10     3     6 1   
    11     4    16 1   
    12     4    17 1   
    13     5    18 1   
    14     5    19 1   
    15     5    20 1   
    16     6     7 1   
    17     6     8 1   
    18     6    21 1   
    19     7    22 1   
    20     8     9 1   
    21     8    10 1   
    22     8    23 1   
    23    10    24 1   
    24    10    25 1   
    25    10    26 1   
    26    11    15 1   
@<TRIPOS>SUBSTRUCTURE
     1 RER         1 TEMP              0 ****  ****    0 ROOT
