@<TRIPOS>MOLECULE
RET
   49    49     1     0     0
SMALL
No Charge or Current Charge


@<TRIPOS>ATOM
      1 C1          -5.6060    13.1520    53.0600 c6         1 RET       0.004200
      2 C2          -5.0010    11.7750    53.4680 c6         1 RET      -0.071400
      3 C3          -3.6110    11.9270    54.1130 c6         1 RET      -0.071400
      4 C4          -2.6100    12.5380    53.1140 c6         1 RET      -0.041200
      5 C5          -3.1790    13.6510    52.2250 c2         1 RET      -0.091400
      6 C6          -4.5320    13.9130    52.1460 ce         1 RET      -0.077200
      7 C7          -5.0270    14.9370    51.1980 ce         1 RET      -0.147000
      8 C8          -6.0250    15.8510    51.3840 cf         1 RET      -0.199000
      9 C9          -6.4950    16.8550    50.4250 cf         1 RET      -0.039200
     10 C10         -7.6800    17.5000    50.6430 ce         1 RET      -0.204000
     11 C11         -8.3070    18.5280    49.7980 ce         1 RET      -0.137000
     12 C12         -9.4680    19.1680    50.1210 cf         1 RET      -0.209000
     13 C13        -10.1690    20.1880    49.3380 cf         1 RET       0.007800
     14 C14        -11.4410    20.5450    49.6800 ce         1 RET      -0.332200
     15 C15        -12.3040    21.5550    49.0070 c          1 RET       0.571100
     16 O1         -13.4360    21.8140    49.3980 o          1 RET      -0.527100
     17 C16         -6.9720    12.8380    52.3190 c3         1 RET      -0.082100
     18 C17         -5.9830    13.9480    54.3820 c3         1 RET      -0.082100
     19 C18         -2.0460    14.3370    51.4150 c3         1 RET      -0.059900
     20 C19         -5.5850    17.1870    49.2450 c3         1 RET      -0.060900
     21 C20         -9.4030    20.8560    48.2000 c3         1 RET      -0.071900
     22 H21         -5.6720    11.2500    54.1630 hc         1 RET       0.042200
     23 H22         -4.9150    11.1280    52.5830 hc         1 RET       0.042200
     24 H31         -3.6690    12.5500    55.0150 hc         1 RET       0.042700
     25 H32         -3.2450    10.9470    54.4480 hc         1 RET       0.042700
     26 H41         -1.7390    12.9070    53.6710 hc         1 RET       0.047200
     27 H42         -2.2330    11.7380    52.4610 hc         1 RET       0.047200
     28 H7          -4.5060    14.9450    50.2410 ha         1 RET       0.166000
     29 H8          -6.5450    15.8490    52.3370 ha         1 RET       0.177000
     30 H10         -8.2470    17.2210    51.5330 ha         1 RET       0.174000
     31 H11         -7.8200    18.7640    48.8530 ha         1 RET       0.172000
     32 H12         -9.9460    18.8820    51.0600 ha         1 RET       0.180000
     33 H14        -11.9180    20.0500    50.5230 ha         1 RET       0.193000
     34 H15        -11.8840    22.0710    48.1170 h4         1 RET      -0.018800
     35 H161        -7.5410    13.7440    52.0860 hc         1 RET       0.035200
     36 H162        -6.7940    12.3110    51.3740 hc         1 RET       0.035200
     37 H163        -7.6230    12.2030    52.9320 hc         1 RET       0.035200
     38 H171        -6.6500    14.7930    54.1900 hc         1 RET       0.035200
     39 H172        -6.5000    13.3040    55.1040 hc         1 RET       0.035200
     40 H173        -5.0920    14.3510    54.8750 hc         1 RET       0.035200
     41 H181        -1.7100    13.6940    50.5930 hc         1 RET       0.041033
     42 H182        -2.3630    15.2930    50.9840 hc         1 RET       0.041033
     43 H183        -1.1760    14.5520    52.0460 hc         1 RET       0.041033
     44 H191        -5.6840    18.2300    48.9240 hc         1 RET       0.044033
     45 H192        -4.5260    17.0600    49.4950 hc         1 RET       0.044033
     46 H193        -5.8080    16.5480    48.3830 hc         1 RET       0.044033
     47 H201        -9.7230    21.8900    48.0310 hc         1 RET       0.049700
     48 H202        -8.3290    20.9150    48.4100 hc         1 RET       0.049700
     49 H203        -9.5330    20.3060    47.2610 hc         1 RET       0.049700
@<TRIPOS>BOND
     1     1     2 1   
     2     1     6 1   
     3     1    17 1   
     4     1    18 1   
     5     2     3 1   
     6     2    22 1   
     7     2    23 1   
     8     3     4 1   
     9     3    24 1   
    10     3    25 1   
    11     4     5 1   
    12     4    26 1   
    13     4    27 1   
    14     5     6 2   
    15     5    19 1   
    16     6     7 1   
    17     7     8 2   
    18     7    28 1   
    19     8     9 1   
    20     8    29 1   
    21     9    10 2   
    22     9    20 1   
    23    10    11 1   
    24    10    30 1   
    25    11    12 2   
    26    11    31 1   
    27    12    13 1   
    28    12    32 1   
    29    13    14 2   
    30    13    21 1   
    31    14    15 1   
    32    14    33 1   
    33    15    16 2   
    34    15    34 1   
    35    17    35 1   
    36    17    36 1   
    37    17    37 1   
    38    18    38 1   
    39    18    39 1   
    40    18    40 1   
    41    19    41 1   
    42    19    42 1   
    43    19    43 1   
    44    20    44 1   
    45    20    45 1   
    46    20    46 1   
    47    21    47 1   
    48    21    48 1   
    49    21    49 1   
@<TRIPOS>SUBSTRUCTURE
     1 RET         1 TEMP              0 ****  ****    0 ROOT
