@<TRIPOS>MOLECULE
RET
   49    49     1     0     0
SMALL
abcg2


@<TRIPOS>ATOM
      1 C1          -5.5990    13.1550    53.0550 c6         1 RET       0.004200
      2 C2          -4.9340    11.8800    53.6000 c6         1 RET      -0.071400
      3 C3          -3.5570    12.1360    54.1740 c6         1 RET      -0.071400
      4 C4          -2.6500    12.6420    53.0710 c6         1 RET      -0.041200
      5 C5          -3.2900    13.6510    52.1630 c2         1 RET      -0.091400
      6 C6          -4.6170    13.9310    52.1720 ce         1 RET      -0.077200
      7 C7          -5.0800    15.0130    51.3100 ce         1 RET      -0.147000
      8 C8          -6.2440    15.6930    51.3270 cf         1 RET      -0.199000
      9 C9          -6.5750    16.7820    50.4270 cf         1 RET      -0.039200
     10 C10         -7.7740    17.3960    50.6000 ce         1 RET      -0.204000
     11 C11         -8.3030    18.4860    49.8350 ce         1 RET      -0.137000
     12 C12         -9.5100    19.0400    50.0920 cf         1 RET      -0.209000
     13 C13        -10.0950    20.1400    49.3580 cf         1 RET       0.007800
     14 C14        -11.3150    20.5890    49.7520 ce         1 RET      -0.332200
     15 C15        -12.0570    21.6730    49.1440 c          1 RET       0.571100
     16 O1         -13.1520    22.0370    49.5330 o          1 RET      -0.527100
     17 C16         -6.8170    12.6790    52.2480 c3         1 RET      -0.082100
     18 C17         -6.0630    14.0120    54.2430 c3         1 RET      -0.082100
     19 C18         -2.2950    14.3440    51.2660 c3         1 RET      -0.059900
     20 C19         -5.5880    17.1680    49.3680 c3         1 RET      -0.060900
     21 C20         -9.3170    20.7100    48.2090 c3         1 RET      -0.071900
     22 H21         -5.5970    11.4360    54.3470 hc         1 RET       0.042200
     23 H22         -4.8440    11.1480    52.7890 hc         1 RET       0.042200
     24 H31         -3.6080    12.8680    54.9840 hc         1 RET       0.042700
     25 H32         -3.1460    11.2240    54.6120 hc         1 RET       0.042700
     26 H41         -1.7390    13.0830    53.4900 hc         1 RET       0.047200
     27 H42         -2.2990    11.8030    52.4550 hc         1 RET       0.047200
     28 H7          -4.3600    15.3360    50.5680 ha         1 RET       0.166000
     29 H8          -7.0110    15.4650    52.0560 ha         1 RET       0.177000
     30 H10         -8.4100    17.0310    51.4020 ha         1 RET       0.174000
     31 H11         -7.7070    18.8780    49.0200 ha         1 RET       0.172000
     32 H12        -10.1000    18.6430    50.9120 ha         1 RET       0.180000
     33 H14        -11.7970    20.1070    50.5970 ha         1 RET       0.193000
     34 H15        -11.5890    22.1800    48.2860 h4         1 RET      -0.018800
     35 H161        -7.4790    13.4830    51.9350 hc         1 RET       0.035200
     36 H162        -6.5030    12.1400    51.3520 hc         1 RET       0.035200
     37 H163        -7.4100    11.9920    52.8560 hc         1 RET       0.035200
     38 H171        -6.5640    14.9280    53.9330 hc         1 RET       0.035200
     39 H172        -6.7680    13.4510    54.8600 hc         1 RET       0.035200
     40 H173        -5.2260    14.3050    54.8770 hc         1 RET       0.035200
     41 H181        -2.6160    14.4010    50.2260 hc         1 RET       0.041033
     42 H182        -2.0940    15.3650    51.5990 hc         1 RET       0.041033
     43 H183        -1.3430    13.8130    51.2780 hc         1 RET       0.041033
     44 H191        -5.9200    18.0070    48.7640 hc         1 RET       0.044033
     45 H192        -4.6300    17.4420    49.8120 hc         1 RET       0.044033
     46 H193        -5.3960    16.3310    48.6940 hc         1 RET       0.044033
     47 H201        -9.8190    21.5290    47.7040 hc         1 RET       0.049700
     48 H202        -8.3490    21.0810    48.5530 hc         1 RET       0.049700
     49 H203        -9.1160    19.9380    47.4660 hc         1 RET       0.049700
@<TRIPOS>BOND
     1     1     2 1   
     2     1     6 1   
     3     1    17 1   
     4     1    18 1   
     5     2     3 1   
     6     2    22 1   
     7     2    23 1   
     8     3     4 1   
     9     3    24 1   
    10     3    25 1   
    11     4     5 1   
    12     4    26 1   
    13     4    27 1   
    14     5     6 2   
    15     5    19 1   
    16     6     7 1   
    17     7     8 2   
    18     7    28 1   
    19     8     9 1   
    20     8    29 1   
    21     9    10 2   
    22     9    20 1   
    23    10    11 1   
    24    10    30 1   
    25    11    12 2   
    26    11    31 1   
    27    12    13 1   
    28    12    32 1   
    29    13    14 2   
    30    13    21 1   
    31    14    15 1   
    32    14    33 1   
    33    15    16 2   
    34    15    34 1   
    35    17    35 1   
    36    17    36 1   
    37    17    37 1   
    38    18    38 1   
    39    18    39 1   
    40    18    40 1   
    41    19    41 1   
    42    19    42 1   
    43    19    43 1   
    44    20    44 1   
    45    20    45 1   
    46    20    46 1   
    47    21    47 1   
    48    21    48 1   
    49    21    49 1   
@<TRIPOS>SUBSTRUCTURE
     1 RET         1 TEMP              0 ****  ****    0 ROOT
