@<TRIPOS>MOLECULE
REU
   53    56     1     0     0
SMALL
No Charge or Current Charge


@<TRIPOS>ATOM
      1 N1         -22.0070     7.3340    29.2880 n3         1 REU      -0.789600
      2 N3         -17.8690     4.1860    24.0950 nb         1 REU      -0.654000
      3 C4         -22.6070     6.3840    28.3220 c6         1 REU       0.204800
      4 C5         -22.0010     4.9820    28.5510 c6         1 REU      -0.094400
      5 C6         -20.5520     4.9660    28.0240 c          1 REU       0.610100
      6 C7         -19.2590     5.1420    25.8510 ca         1 REU      -0.080000
      7 C8         -18.9660     4.1580    24.8850 ca         1 REU       0.313900
      8 C10        -17.2290     6.2730    25.1610 ca         1 REU      -0.093000
      9 C13        -17.7010     8.3840    26.9570 ca         1 REU      -0.088000
     10 C15        -18.3780     6.2450    25.9830 ca         1 REU      -0.003000
     11 C17        -21.9720     3.1710    30.3500 ca         1 REU      -0.091000
     12 C20        -22.3000     5.0860    32.3820 ca         1 REU      -0.101000
     13 C21        -22.2480     5.4990    31.0360 ca         1 REU      -0.059300
     14 C22        -22.4060     6.9870    30.6890 c6         1 REU       0.236100
     15 C18        -22.0230     2.7690    31.6950 ca         1 REU       0.125000
     16 C19        -22.1860     3.7240    32.7110 ca         1 REU      -0.090000
     17 C2         -22.1590     8.7900    28.9180 c3         1 REU       0.130500
     18 C3         -23.6050     9.3180    29.1020 c3         1 REU      -0.105100
     19 C1         -21.0980     9.7470    29.5650 c          1 REU       0.579100
     20 O          -21.2200    10.9650    29.6440 o          1 REU      -0.629100
     21 N          -20.0020     9.0930    30.0760 ns         1 REU      -0.490900
     22 C          -18.8680     9.7320    30.7420 c3         1 REU       0.097300
     23 C16        -22.0850     4.5340    30.0160 ca         1 REU      -0.056300
     24 O1         -19.5750     4.9050    28.7650 o          1 REU      -0.573100
     25 N2         -20.4290     4.9960    26.6430 ns         1 REU      -0.173000
     26 C14        -18.6140     7.3190    26.8720 ca         1 REU      -0.095000
     27 C12        -16.5500     8.3930    26.1510 ca         1 REU      -0.106000
     28 C11        -16.3150     7.3410    25.2510 ca         1 REU      -0.084000
     29 C9         -17.0160     5.2260    24.2430 ca         1 REU       0.361900
     30 H2         -22.4210     6.7040    27.2860 h1         1 REU       0.044200
     31 H3         -23.6980     6.3380    28.4550 h1         1 REU       0.044200
     32 H4         -22.5880     4.3300    27.8910 hc         1 REU       0.065700
     33 H5         -19.6290     3.3040    24.7490 h4         1 REU       0.021100
     34 H6         -17.8880     9.2060    27.6450 ha         1 REU       0.125000
     35 H7         -21.8410     2.4240    29.5720 ha         1 REU       0.127000
     36 H8         -22.4330     5.8210    33.1730 ha         1 REU       0.120000
     37 H9         -21.8240     7.5770    31.4110 h1         1 REU       0.052200
     38 H10        -23.4630     7.2420    30.8560 h1         1 REU       0.052200
     39 H11        -22.2260     3.4080    33.7500 ha         1 REU       0.133000
     40 H12        -21.9380     8.8720    27.8450 h1         1 REU       0.063700
     41 H13        -24.3340     8.6510    28.6280 hc         1 REU       0.048367
     42 H14        -23.8580     9.4150    30.1640 hc         1 REU       0.048367
     43 H15        -23.7120    10.3070    28.6400 hc         1 REU       0.048367
     44 H16        -20.0330     8.0810    29.9830 hn         1 REU       0.359500
     45 H17        -18.1270     8.9700    31.0150 h1         1 REU       0.039700
     46 H18        -18.4060    10.4620    30.0650 h1         1 REU       0.039700
     47 H19        -19.2140    10.2430    31.6500 h1         1 REU       0.039700
     48 H20        -21.2980     4.9560    26.1240 hn         1 REU       0.156000
     49 H21        -19.5020     7.3500    27.4950 ha         1 REU       0.118000
     50 H22        -15.8460     9.2200    26.2190 ha         1 REU       0.120000
     51 H23        -15.4280     7.3610    24.6210 ha         1 REU       0.119000
     52 H24        -16.1400     5.2230    23.5950 h4         1 REU       0.022100
     53 Cl         -21.8790     1.0650    32.1070 cl         1 REU      -0.209000
@<TRIPOS>BOND
     1     1     3 1   
     2     1    14 1   
     3     1    17 1   
     4     2     7 ar  
     5     2    29 ar  
     6     3     4 1   
     7     3    30 1   
     8     3    31 1   
     9     4     5 1   
    10     4    23 1   
    11     4    32 1   
    12     5    24 2   
    13     5    25 1   
    14     6     7 ar  
    15     6    10 ar  
    16     6    25 1   
    17     7    33 1   
    18     8    10 ar  
    19     8    28 ar  
    20     8    29 ar  
    21     9    26 ar  
    22     9    27 ar  
    23     9    34 1   
    24    10    26 ar  
    25    11    15 ar  
    26    11    23 ar  
    27    11    35 1   
    28    12    13 ar  
    29    12    16 ar  
    30    12    36 1   
    31    13    14 1   
    32    13    23 ar  
    33    14    37 1   
    34    14    38 1   
    35    15    16 ar  
    36    15    53 1   
    37    16    39 1   
    38    17    18 1   
    39    17    19 1   
    40    17    40 1   
    41    18    41 1   
    42    18    42 1   
    43    18    43 1   
    44    19    20 2   
    45    19    21 1   
    46    21    22 1   
    47    21    44 1   
    48    22    45 1   
    49    22    46 1   
    50    22    47 1   
    51    25    48 1   
    52    26    49 1   
    53    27    28 ar  
    54    27    50 1   
    55    28    51 1   
    56    29    52 1   
@<TRIPOS>SUBSTRUCTURE
     1 REU         1 TEMP              0 ****  ****    0 ROOT
