@<TRIPOS>MOLECULE
REU
   53    56     1     0     0
SMALL
abcg2


@<TRIPOS>ATOM
      1 N1         -22.1800     7.3310    29.3550 n3         1 REU      -0.789600
      2 N3         -17.2200     4.1090    25.0720 nb         1 REU      -0.654000
      3 C4         -22.7370     6.4470    28.3530 c6         1 REU       0.204800
      4 C5         -22.0670     5.0700    28.5060 c6         1 REU      -0.094400
      5 C6         -20.6010     5.1930    28.0890 c          1 REU       0.610100
      6 C7         -19.0920     5.1530    26.1680 ca         1 REU      -0.080000
      7 C8         -18.4390     4.0550    25.6680 ca         1 REU       0.313900
      8 C10        -17.1980     6.4860    25.4650 ca         1 REU      -0.093000
      9 C13        -18.4190     8.8260    26.3720 ca         1 REU      -0.088000
     10 C15        -18.4880     6.4340    26.0640 ca         1 REU      -0.003000
     11 C17        -22.0450     3.2330    30.2160 ca         1 REU      -0.091000
     12 C20        -22.4930     5.0270    32.2780 ca         1 REU      -0.101000
     13 C21        -22.4060     5.4990    30.9680 ca         1 REU      -0.059300
     14 C22        -22.5940     6.9730    30.6980 c6         1 REU       0.236100
     15 C18        -22.1310     2.7920    31.5240 ca         1 REU       0.125000
     16 C19        -22.3550     3.6780    32.5710 ca         1 REU      -0.090000
     17 C2         -22.1260     8.7530    29.0540 c3         1 REU       0.130500
     18 C3         -23.3360     9.5770    29.5020 c3         1 REU      -0.105100
     19 C1         -20.8020     9.3660    29.5510 c          1 REU       0.579100
     20 O          -20.6620    10.5870    29.6720 o          1 REU      -0.629100
     21 N          -19.8180     8.4890    29.7760 ns         1 REU      -0.490900
     22 C          -18.4720     8.8970    30.1220 c3         1 REU       0.097300
     23 C16        -22.1810     4.5920    29.9320 ca         1 REU      -0.056300
     24 O1         -19.7090     5.5010    28.8720 o          1 REU      -0.573100
     25 N2         -20.3710     4.9970    26.7660 ns         1 REU      -0.173000
     26 C14        -19.0870     7.6360    26.5010 ca         1 REU      -0.095000
     27 C12        -17.1290     8.8770    25.7980 ca         1 REU      -0.106000
     28 C11        -16.5310     7.7280    25.3460 ca         1 REU      -0.084000
     29 C9         -16.6300     5.2800    24.9900 ca         1 REU       0.361900
     30 H2         -22.5380     6.8520    27.3620 h1         1 REU       0.044200
     31 H3         -23.8260     6.3210    28.4500 h1         1 REU       0.044200
     32 H4         -22.5640     4.3590    27.8420 hc         1 REU       0.065700
     33 H5         -18.9000     3.0770    25.7410 h4         1 REU       0.021100
     34 H6         -18.8840     9.7410    26.7160 ha         1 REU       0.125000
     35 H7         -21.8690     2.5280    29.4130 ha         1 REU       0.127000
     36 H8         -22.6690     5.7270    33.0860 ha         1 REU       0.120000
     37 H9         -22.0080     7.5480    31.4180 h1         1 REU       0.052200
     38 H10        -23.6520     7.2220    30.8810 h1         1 REU       0.052200
     39 H11        -22.4180     3.3210    33.5890 ha         1 REU       0.133000
     40 H12        -22.0580     8.8300    27.9650 h1         1 REU       0.063700
     41 H13        -24.2520     9.1270    29.1160 hc         1 REU       0.048367
     42 H14        -23.4080     9.6310    30.5890 hc         1 REU       0.048367
     43 H15        -23.2620    10.5930    29.1180 hc         1 REU       0.048367
     44 H16        -20.0210     7.5120    29.6010 hn         1 REU       0.359500
     45 H17        -17.8660     8.0040    30.2560 h1         1 REU       0.039700
     46 H18        -18.0300     9.5090    29.3320 h1         1 REU       0.039700
     47 H19        -18.4630     9.4740    31.0480 h1         1 REU       0.039700
     48 H20        -21.1180     4.6330    26.1940 hn         1 REU       0.156000
     49 H21        -20.0730     7.6120    26.9380 ha         1 REU       0.118000
     50 H22        -16.6200     9.8280    25.7110 ha         1 REU       0.120000
     51 H23        -15.5480     7.7530    24.8930 ha         1 REU       0.119000
     52 H24        -15.6480     5.3110    24.5260 h4         1 REU       0.022100
     53 CL         -21.9540     1.0810    31.8690 cl         1 REU      -0.209000
@<TRIPOS>BOND
     1     1     3 1   
     2     1    14 1   
     3     1    17 1   
     4     2     7 ar  
     5     2    29 ar  
     6     3     4 1   
     7     3    30 1   
     8     3    31 1   
     9     4     5 1   
    10     4    23 1   
    11     4    32 1   
    12     5    24 2   
    13     5    25 1   
    14     6     7 ar  
    15     6    10 ar  
    16     6    25 1   
    17     7    33 1   
    18     8    10 ar  
    19     8    28 ar  
    20     8    29 ar  
    21     9    26 ar  
    22     9    27 ar  
    23     9    34 1   
    24    10    26 ar  
    25    11    15 ar  
    26    11    23 ar  
    27    11    35 1   
    28    12    13 ar  
    29    12    16 ar  
    30    12    36 1   
    31    13    14 1   
    32    13    23 ar  
    33    14    37 1   
    34    14    38 1   
    35    15    16 ar  
    36    15    53 1   
    37    16    39 1   
    38    17    18 1   
    39    17    19 1   
    40    17    40 1   
    41    18    41 1   
    42    18    42 1   
    43    18    43 1   
    44    19    20 2   
    45    19    21 1   
    46    21    22 1   
    47    21    44 1   
    48    22    45 1   
    49    22    46 1   
    50    22    47 1   
    51    25    48 1   
    52    26    49 1   
    53    27    28 ar  
    54    27    50 1   
    55    28    51 1   
    56    29    52 1   
@<TRIPOS>SUBSTRUCTURE
     1 REU         1 TEMP              0 ****  ****    0 ROOT
