@<TRIPOS>MOLECULE
REV
   41    42     1     0     0
SMALL
abcg2


@<TRIPOS>ATOM
      1 C01         -2.5770     0.6000    -0.4230 ca         1 REV       0.010100
      2 C02         -1.8330     1.0040    -1.5290 ca         1 REV       0.110100
      3 C03         -0.5350     0.5390    -1.6840 ca         1 REV      -0.117000
      4 C04          0.0460    -0.3190    -0.7570 ca         1 REV      -0.106300
      5 C05         -0.6990    -0.7070     0.3620 ca         1 REV       0.095100
      6 C06         -2.0060    -0.2490     0.5230 ca         1 REV       0.094100
      7 C07          3.1470    -1.2190     0.9240 ca         1 REV      -0.107000
      8 C08          2.3570    -0.3410     0.1850 ca         1 REV      -0.098300
      9 C09          2.4280     1.0220     0.4700 ca         1 REV      -0.107000
     10 C10          3.2700     1.4940     1.4650 ca         1 REV      -0.108000
     11 C11          4.0530     0.6090     2.1990 ca         1 REV      -0.106000
     12 C12          3.9900    -0.7490     1.9260 ca         1 REV      -0.108000
     13 O13         -2.7250    -0.6100     1.6170 os         1 REV      -0.347100
     14 C14         -3.5050    -1.7860     1.4440 c3         1 REV       0.152900
     15 O15         -3.8620     1.0350    -0.3020 os         1 REV      -0.363100
     16 C16         -4.0380     2.1160     0.6120 c3         1 REV       0.143900
     17 O17         -2.3480     1.8330    -2.4640 oh         1 REV      -0.534100
     18 O18         -0.2260    -1.5560     1.3100 oh         1 REV      -0.537100
     19 C19          1.4550    -0.8540    -0.9210 c3         1 REV       0.028900
     20 C20          2.0720    -0.5810    -2.2980 c3         1 REV      -0.066400
     21 C21          3.4220    -1.2590    -2.4830 c3         1 REV      -0.091100
     22 H1           0.0200     0.8580    -2.5570 ha         1 REV       0.133000
     23 H2           3.1090    -2.2810     0.7090 ha         1 REV       0.116500
     24 H3           1.8160     1.7210    -0.0880 ha         1 REV       0.116500
     25 H4           3.3130     2.5550     1.6740 ha         1 REV       0.115000
     26 H5           4.7050     0.9790     2.9790 ha         1 REV       0.114000
     27 H6           4.5950    -1.4460     2.4900 ha         1 REV       0.115000
     28 H7          -4.2110    -1.6840     0.6170 h1         1 REV       0.038367
     29 H8          -2.8780    -2.6640     1.2660 h1         1 REV       0.038367
     30 H9          -4.0640    -1.9380     2.3650 h1         1 REV       0.038367
     31 H10         -3.8110     1.8180     1.6360 h1         1 REV       0.041700
     32 H11         -3.4140     2.9720     0.3440 h1         1 REV       0.041700
     33 H12         -5.0830     2.4140     0.5550 h1         1 REV       0.041700
     34 H13         -3.2820     1.9900    -2.2770 ho         1 REV       0.478000
     35 H14          0.7250    -1.4380     1.4250 ho         1 REV       0.472000
     36 H15          1.4040    -1.9450    -0.8200 hc         1 REV       0.062700
     37 H16          1.3820    -0.9420    -3.0650 hc         1 REV       0.046200
     38 H17          2.1810     0.4960    -2.4540 hc         1 REV       0.046200
     39 H18          3.7780    -1.1300    -3.5050 hc         1 REV       0.035700
     40 H19          4.1780    -0.8460    -1.8160 hc         1 REV       0.035700
     41 H20          3.3560    -2.3310    -2.2860 hc         1 REV       0.035700
@<TRIPOS>BOND
     1     1     2 ar  
     2     1     6 ar  
     3     1    15 1   
     4     2     3 ar  
     5     2    17 1   
     6     3     4 ar  
     7     3    22 1   
     8     4     5 ar  
     9     4    19 1   
    10     5     6 ar  
    11     5    18 1   
    12     6    13 1   
    13     7     8 ar  
    14     7    12 ar  
    15     7    23 1   
    16     8     9 ar  
    17     8    19 1   
    18     9    10 ar  
    19     9    24 1   
    20    10    11 ar  
    21    10    25 1   
    22    11    12 ar  
    23    11    26 1   
    24    12    27 1   
    25    13    14 1   
    26    14    28 1   
    27    14    29 1   
    28    14    30 1   
    29    15    16 1   
    30    16    31 1   
    31    16    32 1   
    32    16    33 1   
    33    17    34 1   
    34    18    35 1   
    35    19    20 1   
    36    19    36 1   
    37    20    21 1   
    38    20    37 1   
    39    20    38 1   
    40    21    39 1   
    41    21    40 1   
    42    21    41 1   
@<TRIPOS>SUBSTRUCTURE
     1 REV         1 TEMP              0 ****  ****    0 ROOT
