@<TRIPOS>MOLECULE
REV
   41    42     1     0     0
SMALL
No Charge or Current Charge


@<TRIPOS>ATOM
      1 C01         -2.5080     1.0110    -0.5150 ca         1 REV       0.010100
      2 C02         -1.6990     1.2840    -1.6330 ca         1 REV       0.110100
      3 C03         -0.4360     0.6990    -1.7800 ca         1 REV      -0.117000
      4 C04          0.0750    -0.1800    -0.8000 ca         1 REV      -0.106300
      5 C05         -0.7210    -0.4510     0.3420 ca         1 REV       0.095100
      6 C06         -2.0210     0.1150     0.4820 ca         1 REV       0.094100
      7 C07          3.1090    -1.2640     0.9600 ca         1 REV      -0.107000
      8 C08          2.4180    -0.3440     0.1440 ca         1 REV      -0.098300
      9 C09          2.6110     1.0370     0.3500 ca         1 REV      -0.107000
     10 C10          3.4760     1.4930     1.3590 ca         1 REV      -0.108000
     11 C11          4.1570     0.5700     2.1700 ca         1 REV      -0.106000
     12 C12          3.9740    -0.8080     1.9690 ca         1 REV      -0.108000
     13 O13         -2.7780    -0.1790     1.6020 os         1 REV      -0.347100
     14 C14         -3.2480    -1.5200     1.8300 c3         1 REV       0.152900
     15 O15         -3.7450     1.6580    -0.4880 os         1 REV      -0.363100
     16 C16         -4.7070     1.5480     0.5770 c3         1 REV       0.143900
     17 O17         -2.1600     2.1360    -2.5930 oh         1 REV      -0.534100
     18 O18         -0.2020    -1.2360     1.3400 oh         1 REV      -0.537100
     19 C19          1.4690    -0.8390    -0.9500 c3         1 REV       0.028900
     20 C20          2.1220    -0.6960    -2.3530 c3         1 REV      -0.066400
     21 C21          3.4140    -1.5220    -2.5320 c3         1 REV      -0.091100
     22 H1           0.1360     0.9530    -2.6670 ha         1 REV       0.133000
     23 H2           2.9850    -2.3350     0.8100 ha         1 REV       0.116500
     24 H3           2.0880     1.7610    -0.2730 ha         1 REV       0.116500
     25 H4           3.6180     2.5600     1.5130 ha         1 REV       0.115000
     26 H5           4.8280     0.9230     2.9510 ha         1 REV       0.114000
     27 H6           4.5050    -1.5230     2.5940 ha         1 REV       0.115000
     28 H7          -3.8400    -1.8710     0.9750 h1         1 REV       0.038367
     29 H8          -2.4200    -2.2210     1.9860 h1         1 REV       0.038367
     30 H9          -3.8870    -1.5520     2.7220 h1         1 REV       0.038367
     31 H10         -5.0600     0.5140     0.6830 h1         1 REV       0.041700
     32 H11         -4.2790     1.8840     1.5300 h1         1 REV       0.041700
     33 H12         -5.5800     2.1770     0.3630 h1         1 REV       0.041700
     34 H13         -3.0510     2.4260    -2.2950 ho         1 REV       0.478000
     35 H14          0.7710    -1.2620     1.2210 ho         1 REV       0.472000
     36 H15          1.3160    -1.9190    -0.8170 hc         1 REV       0.062700
     37 H16          1.4050    -1.0200    -3.1180 hc         1 REV       0.046200
     38 H17          2.3540     0.3580    -2.5500 hc         1 REV       0.046200
     39 H18          3.7930    -1.4190    -3.5550 hc         1 REV       0.035700
     40 H19          4.1980    -1.1800    -1.8450 hc         1 REV       0.035700
     41 H20          3.2260    -2.5860    -2.3420 hc         1 REV       0.035700
@<TRIPOS>BOND
     1     1     2 ar  
     2     1     6 ar  
     3     1    15 1   
     4     2     3 ar  
     5     2    17 1   
     6     3     4 ar  
     7     3    22 1   
     8     4     5 ar  
     9     4    19 1   
    10     5     6 ar  
    11     5    18 1   
    12     6    13 1   
    13     7     8 ar  
    14     7    12 ar  
    15     7    23 1   
    16     8     9 ar  
    17     8    19 1   
    18     9    10 ar  
    19     9    24 1   
    20    10    11 ar  
    21    10    25 1   
    22    11    12 ar  
    23    11    26 1   
    24    12    27 1   
    25    13    14 1   
    26    14    28 1   
    27    14    29 1   
    28    14    30 1   
    29    15    16 1   
    30    16    31 1   
    31    16    32 1   
    32    16    33 1   
    33    17    34 1   
    34    18    35 1   
    35    19    20 1   
    36    19    36 1   
    37    20    21 1   
    38    20    37 1   
    39    20    38 1   
    40    21    39 1   
    41    21    40 1   
    42    21    41 1   
@<TRIPOS>SUBSTRUCTURE
     1 REV         1 TEMP              0 ****  ****    0 ROOT
