@<TRIPOS>MOLECULE
REW
   65    69     1     0     0
SMALL
No Charge or Current Charge


@<TRIPOS>ATOM
      1 C13          4.4400    -1.3020    -0.8780 c3         1 REW      -0.101700
      2 C18          0.1730    -0.5320     2.9790 ca         1 REW      -0.081000
      3 C17          1.2900    -0.6600     2.1350 ca         1 REW      -0.209000
      4 C16          1.1440    -1.2490     0.8600 ca         1 REW       0.130100
      5 C19         -1.0860    -0.9890     2.5570 ca         1 REW      -0.120000
      6 C20         -1.2400    -1.5780     1.2880 ca         1 REW      -0.026300
      7 C21         -0.1180    -1.7040     0.4460 ca         1 REW      -0.146000
      8 C22         -2.6050    -2.0730     0.8250 c3         1 REW      -0.021100
      9 C23         -3.3430    -1.0200    -0.0490 cy         1 REW      -0.148700
     10 C24         -4.7590    -1.2030    -0.7550 cy         1 REW      -0.034300
     11 C11         10.8510     2.2380    -0.1890 ca         1 REW      -0.120500
     12 C12          9.9330     1.1730    -0.1600 ca         1 REW      -0.073000
     13 C33         -6.6330     1.9470     0.5270 ca         1 REW      -0.115500
     14 C36         -5.1750    -2.5900    -0.1070 c          1 REW       0.713000
     15 O37         -4.9740    -3.6440    -0.6930 o          1 REW      -0.707500
     16 N25         -5.1960     0.0600    -0.1090 nj         1 REW      -0.202400
     17 C28         -6.4050     0.7850    -0.2370 ca         1 REW       0.009000
     18 C32         -7.8360     2.6610     0.3910 ca         1 REW      -0.146500
     19 C31         -8.8250     2.2280    -0.5070 ca         1 REW       0.075100
     20 O34         -9.9850     2.9700    -0.5990 os         1 REW      -0.355100
     21 C35        -11.0580     2.6100    -1.4880 c3         1 REW       0.156900
     22 C30         -8.6010     1.0650    -1.2760 ca         1 REW      -0.146500
     23 C29         -7.3970     0.3510    -1.1390 ca         1 REW      -0.115500
     24 C26         -4.0400     0.1620     0.6940 c          1 REW       0.570000
     25 O27         -3.7140     0.9240     1.5960 o          1 REW      -0.560000
     26 O15          2.2020    -1.4020    -0.0120 os         1 REW      -0.358100
     27 C14          3.5340    -0.9700     0.3180 c3         1 REW       0.171600
     28 C3           5.8730    -0.9260    -0.6290 cc         1 REW       0.247300
     29 N4           6.3250     0.3470    -0.8190 nc         1 REW      -0.671000
     30 C5           7.6110     0.2640    -0.4970 cd         1 REW       0.498500
     31 O6           8.0490    -0.9730    -0.1050 os         1 REW      -0.263000
     32 C2           6.9120    -1.7080    -0.2010 cd         1 REW       0.113300
     33 C1           6.9570    -3.1690     0.1570 c3         1 REW      -0.116400
     34 C7           8.5820     1.3790    -0.5260 ca         1 REW      -0.129500
     35 C10         10.4340     3.5190    -0.5840 ca         1 REW      -0.097000
     36 C9           9.0960     3.7360    -0.9490 ca         1 REW      -0.120500
     37 C8           8.1760     2.6740    -0.9200 ca         1 REW      -0.073000
     38 H131         4.3720    -2.3750    -1.0940 hc         1 REW       0.066700
     39 H132         4.0690    -0.7780    -1.7670 hc         1 REW       0.066700
     40 H17          2.2520    -0.2980     2.4850 ha         1 REW       0.104000
     41 H19         -1.9440    -0.8800     3.2170 ha         1 REW       0.127000
     42 H21         -0.2240    -2.1550    -0.5370 ha         1 REW       0.124000
     43 H221        -2.4650    -2.9980     0.2520 hc         1 REW       0.080700
     44 H222        -3.2070    -2.3460     1.7000 hc         1 REW       0.080700
     45 H23         -2.6050    -0.6030    -0.7420 hc         1 REW       0.063700
     46 H24         -4.7420    -1.1760    -1.8490 h1         1 REW       0.052700
     47 H11         11.8880     2.0680     0.0940 ha         1 REW       0.114500
     48 H12         10.2800     0.1890     0.1490 ha         1 REW       0.132000
     49 H32         -8.0030     3.5570     0.9850 ha         1 REW       0.106000
     50 H351       -11.4500     1.6150    -1.2420 h1         1 REW       0.029033
     51 H352       -11.8800     3.3310    -1.4020 h1         1 REW       0.029033
     52 H353       -10.7150     2.6070    -2.5310 h1         1 REW       0.029033
     53 H30         -9.3440     0.7020    -1.9810 ha         1 REW       0.106000
     54 H29         -7.2410    -0.5430    -1.7390 ha         1 REW       0.132000
     55 H141         3.9010    -1.4930     1.2110 h1         1 REW       0.039200
     56 H142         3.5570     0.1110     0.5080 h1         1 REW       0.039200
     57 H11A         6.8230    -3.7930    -0.7350 hc         1 REW       0.057033
     58 H12A         7.9160    -3.4380     0.6150 hc         1 REW       0.057033
     59 H13          6.1620    -3.4220     0.8680 hc         1 REW       0.057033
     60 H10         11.1460     4.3420    -0.6060 ha         1 REW       0.112000
     61 H9           8.7710     4.7280    -1.2550 ha         1 REW       0.114500
     62 H8           7.1430     2.8610    -1.2070 ha         1 REW       0.132000
     63 O38         -5.7650    -2.6520     0.9640 o          1 REW      -0.707500
     64 H33         -5.8830     2.3030     1.2280 ha         1 REW       0.132000
     65 H18          0.2830    -0.0760     3.9600 ha         1 REW       0.101000
@<TRIPOS>BOND
     1     1    27 1   
     2     1    28 1   
     3     1    38 1   
     4     1    39 1   
     5     2     3 ar  
     6     2     5 ar  
     7     2    65 1   
     8     3     4 ar  
     9     3    40 1   
    10     4     7 ar  
    11     4    26 1   
    12     5     6 ar  
    13     5    41 1   
    14     6     7 ar  
    15     6     8 1   
    16     7    42 1   
    17     8     9 1   
    18     8    43 1   
    19     8    44 1   
    20     9    10 1   
    21     9    24 1   
    22     9    45 1   
    23    10    14 1   
    24    10    16 1   
    25    10    46 1   
    26    11    12 ar  
    27    11    35 ar  
    28    11    47 1   
    29    12    34 ar  
    30    12    48 1   
    31    13    17 ar  
    32    13    18 ar  
    33    13    64 1   
    34    14    15 1   
    35    14    63 1   
    36    16    17 1   
    37    16    24 1   
    38    17    23 ar  
    39    18    19 ar  
    40    18    49 1   
    41    19    20 1   
    42    19    22 ar  
    43    20    21 1   
    44    21    50 1   
    45    21    51 1   
    46    21    52 1   
    47    22    23 ar  
    48    22    53 1   
    49    23    54 1   
    50    24    25 2   
    51    26    27 1   
    52    27    55 1   
    53    27    56 1   
    54    28    29 1   
    55    28    32 2   
    56    29    30 2   
    57    30    31 1   
    58    30    34 1   
    59    31    32 1   
    60    32    33 1   
    61    33    57 1   
    62    33    58 1   
    63    33    59 1   
    64    34    37 ar  
    65    35    36 ar  
    66    35    60 1   
    67    36    37 ar  
    68    36    61 1   
    69    37    62 1   
@<TRIPOS>SUBSTRUCTURE
     1 REW         1 TEMP              0 ****  ****    0 ROOT
