@<TRIPOS>MOLECULE
REW
   65    69     1     0     0
SMALL
abcg2


@<TRIPOS>ATOM
      1 C13          4.4280    -1.6480    -0.8100 c3         1 REW      -0.101700
      2 C18          0.1960    -0.1750     2.7060 ca         1 REW      -0.081000
      3 C17          1.3190    -0.4550     1.9360 ca         1 REW      -0.209000
      4 C16          1.1700    -1.1950     0.7660 ca         1 REW       0.130100
      5 C19         -1.0620    -0.6150     2.3290 ca         1 REW      -0.120000
      6 C20         -1.2160    -1.3560     1.1580 ca         1 REW      -0.026300
      7 C21         -0.0980    -1.6390     0.3870 ca         1 REW      -0.146000
      8 C22         -2.5720    -1.8270     0.7100 c3         1 REW      -0.021100
      9 C23         -3.1800    -0.9060    -0.3420 cy         1 REW      -0.148700
     10 C24         -4.6390    -1.1870    -0.8090 cy         1 REW      -0.034300
     11 C11         10.5030     2.3160    -0.0740 ca         1 REW      -0.120500
     12 C12          9.6920     1.1910    -0.0900 ca         1 REW      -0.073000
     13 C33         -6.3520     2.0400     0.3440 ca         1 REW      -0.115500
     14 C36         -5.3270    -2.3820    -0.1330 c          1 REW       0.713000
     15 O37         -5.1510    -3.4690    -0.7160 o          1 REW      -0.707500
     16 N25         -4.9790     0.1330    -0.2900 nj         1 REW      -0.202400
     17 C28         -6.1870     0.8160    -0.3090 ca         1 REW       0.009000
     18 C32         -7.5670     2.6980     0.2970 ca         1 REW      -0.146500
     19 C31         -8.6490     2.1580    -0.3990 ca         1 REW       0.075100
     20 O34         -9.7960     2.8700    -0.3790 os         1 REW      -0.355100
     21 C35        -10.9300     2.3290    -1.0250 c3         1 REW       0.156900
     22 C30         -8.4850     0.9430    -1.0560 ca         1 REW      -0.146500
     23 C29         -7.2640     0.2820    -1.0080 ca         1 REW      -0.115500
     24 C26         -3.7290     0.4250     0.1500 c          1 REW       0.570000
     25 O27         -3.2750     1.3940     0.7160 o          1 REW      -0.560000
     26 O15          2.1850    -1.5320    -0.0560 os         1 REW      -0.358100
     27 C14          3.4990    -1.1200     0.2710 c3         1 REW       0.171600
     28 C3           5.8280    -1.2020    -0.5750 cc         1 REW       0.247300
     29 N4           6.1920     0.1250    -0.6830 nc         1 REW      -0.671000
     30 C5           7.4500     0.1570    -0.4020 cd         1 REW       0.498500
     31 O6           7.9540    -1.0500    -0.1140 os         1 REW      -0.263000
     32 C2           6.9170    -1.9240    -0.2200 cd         1 REW       0.113300
     33 C1           7.1740    -3.3530     0.0520 c3         1 REW      -0.116400
     34 C7           8.3320     1.3150    -0.3750 ca         1 REW      -0.129500
     35 C10          9.9700     3.5700    -0.3400 ca         1 REW      -0.097000
     36 C9           8.6150     3.6960    -0.6240 ca         1 REW      -0.120500
     37 C8           7.8000     2.5780    -0.6420 ca         1 REW      -0.073000
     38 H131         4.3810    -2.7380    -0.8340 hc         1 REW       0.066700
     39 H132         4.0890    -1.2880    -1.7860 hc         1 REW       0.066700
     40 H17          2.2860    -0.0960     2.2620 ha         1 REW       0.104000
     41 H19         -1.9240    -0.3860     2.9420 ha         1 REW       0.127000
     42 H21         -0.1990    -2.2200    -0.5240 ha         1 REW       0.124000
     43 H221        -2.4950    -2.8290     0.2810 hc         1 REW       0.080700
     44 H222        -3.2470    -1.8990     1.5650 hc         1 REW       0.080700
     45 H23         -2.4900    -0.7850    -1.1810 hc         1 REW       0.063700
     46 H24         -4.7320    -1.2480    -1.8970 h1         1 REW       0.052700
     47 H11         11.5570     2.2100     0.1470 ha         1 REW       0.114500
     48 H12         10.1260     0.2230     0.1210 ha         1 REW       0.132000
     49 H32         -7.6830     3.6430     0.8130 ha         1 REW       0.106000
     50 H351       -11.2050     1.3530    -0.6170 h1         1 REW       0.029033
     51 H352       -11.7480     3.0240    -0.8500 h1         1 REW       0.029033
     52 H353       -10.7800     2.2300    -2.1030 h1         1 REW       0.029033
     53 H30         -9.2920     0.4860    -1.6120 ha         1 REW       0.106000
     54 H29         -7.1630    -0.6570    -1.5340 ha         1 REW       0.132000
     55 H141         3.7990    -1.5150     1.2480 h1         1 REW       0.039200
     56 H142         3.5610    -0.0270     0.3210 h1         1 REW       0.039200
     57 H11A         7.9530    -3.7540    -0.5990 hc         1 REW       0.057033
     58 H12A         7.4870    -3.5170     1.0850 hc         1 REW       0.057033
     59 H13          6.2680    -3.9320    -0.1160 hc         1 REW       0.057033
     60 H10         10.6070     4.4450    -0.3240 ha         1 REW       0.112000
     61 H9           8.1930     4.6700    -0.8330 ha         1 REW       0.114500
     62 H8           6.7450     2.6800    -0.8620 ha         1 REW       0.132000
     63 O38         -5.9510    -2.1660     0.9180 o          1 REW      -0.707500
     64 H33         -5.5370     2.4820     0.8980 ha         1 REW       0.132000
     65 H18          0.3150     0.3990     3.6160 ha         1 REW       0.101000
@<TRIPOS>BOND
     1     1    27 1   
     2     1    28 1   
     3     1    38 1   
     4     1    39 1   
     5     2     3 ar  
     6     2     5 ar  
     7     2    65 1   
     8     3     4 ar  
     9     3    40 1   
    10     4     7 ar  
    11     4    26 1   
    12     5     6 ar  
    13     5    41 1   
    14     6     7 ar  
    15     6     8 1   
    16     7    42 1   
    17     8     9 1   
    18     8    43 1   
    19     8    44 1   
    20     9    10 1   
    21     9    24 1   
    22     9    45 1   
    23    10    14 1   
    24    10    16 1   
    25    10    46 1   
    26    11    12 ar  
    27    11    35 ar  
    28    11    47 1   
    29    12    34 ar  
    30    12    48 1   
    31    13    17 ar  
    32    13    18 ar  
    33    13    64 1   
    34    14    15 1   
    35    14    63 1   
    36    16    17 1   
    37    16    24 1   
    38    17    23 ar  
    39    18    19 ar  
    40    18    49 1   
    41    19    20 1   
    42    19    22 ar  
    43    20    21 1   
    44    21    50 1   
    45    21    51 1   
    46    21    52 1   
    47    22    23 ar  
    48    22    53 1   
    49    23    54 1   
    50    24    25 2   
    51    26    27 1   
    52    27    55 1   
    53    27    56 1   
    54    28    29 1   
    55    28    32 2   
    56    29    30 2   
    57    30    31 1   
    58    30    34 1   
    59    31    32 1   
    60    32    33 1   
    61    33    57 1   
    62    33    58 1   
    63    33    59 1   
    64    34    37 ar  
    65    35    36 ar  
    66    35    60 1   
    67    36    37 ar  
    68    36    61 1   
    69    37    62 1   
@<TRIPOS>SUBSTRUCTURE
     1 REW         1 TEMP              0 ****  ****    0 ROOT
