@<TRIPOS>MOLECULE
REX
   51    50     1     0     0
SMALL
abcg2


@<TRIPOS>ATOM
      1 C1          -1.2220     0.6980    -0.3510 c3         1 REX      -0.068400
      2 C2          -2.5180     0.1310     0.2140 c3         1 REX      -0.079400
      3 C3          -0.1180    -0.3480    -0.4100 c3         1 REX      -0.157400
      4 C4          -3.6180     1.1800     0.3170 c3         1 REX      -0.077400
      5 C5           1.1690     0.1730    -1.0140 c          1 REX       0.597100
      6 N1           2.2900    -0.3740    -0.5160 ns         1 REX      -0.489900
      7 O1           1.1830     1.0180    -1.8990 o          1 REX      -0.624100
      8 C6           3.6100    -0.0880    -1.0240 c3         1 REX       0.023700
      9 C7           4.6220    -0.4300     0.0670 c          1 REX       0.579100
     10 C8           3.9320    -0.8940    -2.2850 c3         1 REX      -0.105100
     11 O2           4.4200    -1.3590     0.8430 o          1 REX      -0.671100
     12 N2           5.7220     0.3180     0.0570 ns         1 REX      -0.450900
     13 C9           6.8830     0.1040     0.8930 c3         1 REX      -0.046300
     14 C10         -4.9430     0.6300     0.8360 c3         1 REX      -0.060300
     15 C11          6.6340     0.5310     2.3380 c3         1 REX      -0.079100
     16 C12          8.0820     0.8830     0.2940 c          1 REX       0.716000
     17 O3           7.8510     1.6130    -0.6910 o          1 REX      -0.723000
     18 O4           9.1700     0.7140     0.8690 o          1 REX      -0.723000
     19 N3          -5.4750    -0.3190    -0.1180 ns         1 REX      -0.388900
     20 C13         -5.9640     1.7570     1.1630 c          1 REX       0.718000
     21 C14         -6.3970    -1.2230     0.2000 c          1 REX       0.581100
     22 C15         -7.0730    -1.8710    -0.9970 c3         1 REX      -0.024400
     23 O5          -6.7150    -1.5480     1.3350 o          1 REX      -0.620100
     24 N4          -7.6770    -3.1530    -0.5900 nz         1 REX      -0.950000
     25 O6          -7.0700     1.7120     0.6000 o          1 REX      -0.703500
     26 O7          -5.5630     2.6040     1.9840 o          1 REX      -0.703500
     27 HC11        -0.8940     1.5440     0.2600 hc         1 REX       0.056700
     28 HC12        -1.4050     1.0930    -1.3530 hc         1 REX       0.056700
     29 HC21        -2.8480    -0.7040    -0.4130 hc         1 REX       0.023700
     30 HC22        -2.3330    -0.2890     1.2090 hc         1 REX       0.023700
     31 HC31        -0.4460    -1.1940    -1.0260 hc         1 REX       0.047700
     32 HC32         0.0700    -0.7570     0.5860 hc         1 REX       0.047700
     33 HC41        -3.2980     1.9770     0.9900 hc         1 REX       0.064200
     34 HC42        -3.7760     1.6510    -0.6610 hc         1 REX       0.064200
     35 HN1          2.2210    -1.0970     0.1850 hn         1 REX       0.331500
     36 HC6          3.6710     0.9770    -1.2590 h1         1 REX       0.083700
     37 HC81         3.2100    -0.6700    -3.0690 hc         1 REX       0.042700
     38 HC82         4.9250    -0.6490    -2.6630 hc         1 REX       0.042700
     39 HC83         3.8970    -1.9640    -2.0800 hc         1 REX       0.042700
     40 HN2          5.8410     1.0450    -0.6350 hn         1 REX       0.345500
     41 HC9          7.1360    -0.9610     0.8850 h1         1 REX       0.048700
     42 H10         -4.7450     0.0890     1.7670 h1         1 REX       0.074700
     43 H111         6.3930     1.5940     2.3940 hc         1 REX       0.026700
     44 H112         5.8070    -0.0280     2.7740 hc         1 REX       0.026700
     45 H113         7.5200     0.3500     2.9440 hc         1 REX       0.026700
     46 HN3         -5.3760    -0.0800    -1.0940 hn         1 REX       0.303500
     47 H151        -7.8760    -1.2280    -1.3570 hx         1 REX       0.110700
     48 H152        -6.3880    -2.0610    -1.8190 hx         1 REX       0.110700
     49 HN41        -6.9750    -3.8560    -0.3630 hn         1 REX       0.508667
     50 HN42        -8.2650    -3.0420     0.2370 hn         1 REX       0.508667
     51 HN43        -8.2590    -3.5390    -1.3330 hn         1 REX       0.508667
@<TRIPOS>BOND
     1     1     2 1   
     2     1     3 1   
     3     1    27 1   
     4     1    28 1   
     5     2     4 1   
     6     2    29 1   
     7     2    30 1   
     8     3     5 1   
     9     3    31 1   
    10     3    32 1   
    11     4    14 1   
    12     4    33 1   
    13     4    34 1   
    14     5     6 1   
    15     5     7 2   
    16     6     8 1   
    17     6    35 1   
    18     8     9 1   
    19     8    10 1   
    20     8    36 1   
    21     9    11 2   
    22     9    12 1   
    23    10    37 1   
    24    10    38 1   
    25    10    39 1   
    26    12    13 1   
    27    12    40 1   
    28    13    15 1   
    29    13    16 1   
    30    13    41 1   
    31    14    19 1   
    32    14    20 1   
    33    14    42 1   
    34    15    43 1   
    35    15    44 1   
    36    15    45 1   
    37    16    17 1   
    38    16    18 1   
    39    19    21 1   
    40    19    46 1   
    41    20    25 1   
    42    20    26 1   
    43    21    22 1   
    44    21    23 2   
    45    22    24 1   
    46    22    47 1   
    47    22    48 1   
    48    24    49 1   
    49    24    50 1   
    50    24    51 1   
@<TRIPOS>SUBSTRUCTURE
     1 REX         1 TEMP              0 ****  ****    0 ROOT
