@<TRIPOS>MOLECULE
REX
   51    50     1     0     0
SMALL
No Charge or Current Charge


@<TRIPOS>ATOM
      1 C1          -1.2600     0.4260    -0.4720 c3         1 REX      -0.068400
      2 C2          -2.6300    -0.0040     0.0980 c3         1 REX      -0.079400
      3 C3          -0.4200    -0.7660    -0.9870 c3         1 REX      -0.157400
      4 C4          -3.4730     1.1880     0.6090 c3         1 REX      -0.077400
      5 C5           0.9330    -0.3050    -1.5430 c          1 REX       0.597100
      6 N1           2.0180    -0.5970    -0.7490 ns         1 REX      -0.489900
      7 O1           1.0430     0.2590    -2.6230 o          1 REX      -0.624100
      8 C6           3.4260    -0.2780    -1.0690 c3         1 REX       0.023700
      9 C7           4.2890    -0.2730     0.2290 c          1 REX       0.579100
     10 C8           3.9840    -1.2590    -2.1290 c3         1 REX      -0.105100
     11 O2           3.8670    -0.6680     1.3130 o          1 REX      -0.671100
     12 N2           5.5720     0.2100     0.0760 ns         1 REX      -0.450900
     13 C9           6.5800     0.3450     1.1550 c3         1 REX      -0.046300
     14 C10         -4.8250     0.7880     1.2560 c3         1 REX      -0.060300
     15 C11          6.2910     1.5710     2.0490 c3         1 REX      -0.079100
     16 C12          8.0210     0.3990     0.5590 c          1 REX       0.716000
     17 O3           8.1950     1.0050    -0.4900 o          1 REX      -0.723000
     18 O4           8.8950    -0.2630     1.1030 o          1 REX      -0.723000
     19 N3          -5.7330     0.1200     0.2910 ns         1 REX      -0.388900
     20 C13         -5.5380     2.0190     1.8870 c          1 REX       0.718000
     21 C14         -5.8910    -1.2430     0.1540 c          1 REX       0.581100
     22 C15         -6.8900    -1.6710    -0.9540 c3         1 REX      -0.024400
     23 O5          -5.2990    -2.0580     0.8510 o          1 REX      -0.620100
     24 N4          -7.0460    -3.2000    -1.0900 nz         1 REX      -0.950000
     25 O6          -6.0830     2.8210     1.1400 o          1 REX      -0.703500
     26 O7          -5.6030     2.0830     3.1070 o          1 REX      -0.703500
     27 HC11        -0.6940     0.9560     0.3050 hc         1 REX       0.056700
     28 HC12        -1.4180     1.1380    -1.2920 hc         1 REX       0.056700
     29 HC21        -3.1850    -0.5360    -0.6840 hc         1 REX       0.023700
     30 HC22        -2.4720    -0.7120     0.9210 hc         1 REX       0.023700
     31 HC31        -0.9790    -1.2630    -1.7900 hc         1 REX       0.047700
     32 HC32        -0.2650    -1.4660    -0.1570 hc         1 REX       0.047700
     33 HC41        -2.8840     1.7410     1.3520 hc         1 REX       0.064200
     34 HC42        -3.6600     1.8820    -0.2200 hc         1 REX       0.064200
     35 HN1          1.8250    -1.0470     0.1400 hn         1 REX       0.331500
     36 HC6          3.4670     0.7400    -1.4780 h1         1 REX       0.083700
     37 HC81         3.3800    -1.2320    -3.0430 hc         1 REX       0.042700
     38 HC82         5.0140    -0.9990    -2.4010 hc         1 REX       0.042700
     39 HC83         3.9800    -2.2860    -1.7450 hc         1 REX       0.042700
     40 HN2          5.8410     0.5060    -0.8570 hn         1 REX       0.345500
     41 HC9          6.5250    -0.5560     1.7800 h1         1 REX       0.048700
     42 H10         -4.6200     0.0930     2.0800 h1         1 REX       0.074700
     43 H111         6.3290     2.4970     1.4630 hc         1 REX       0.026700
     44 H112         5.2990     1.4950     2.5110 hc         1 REX       0.026700
     45 H113         7.0340     1.6430     2.8520 hc         1 REX       0.026700
     46 HN3         -6.2890     0.7090    -0.3190 hn         1 REX       0.303500
     47 H151        -7.8580    -1.2220    -0.7110 hx         1 REX       0.110700
     48 H152        -6.5270    -1.2520    -1.8980 hx         1 REX       0.110700
     49 HN41        -6.1580    -3.6790    -1.3100 hn         1 REX       0.508667
     50 HN42        -7.3760    -3.6510    -0.2210 hn         1 REX       0.508667
     51 HN43        -7.7110    -3.4910    -1.8260 hn         1 REX       0.508667
@<TRIPOS>BOND
     1     1     2 1   
     2     1     3 1   
     3     1    27 1   
     4     1    28 1   
     5     2     4 1   
     6     2    29 1   
     7     2    30 1   
     8     3     5 1   
     9     3    31 1   
    10     3    32 1   
    11     4    14 1   
    12     4    33 1   
    13     4    34 1   
    14     5     6 1   
    15     5     7 2   
    16     6     8 1   
    17     6    35 1   
    18     8     9 1   
    19     8    10 1   
    20     8    36 1   
    21     9    11 2   
    22     9    12 1   
    23    10    37 1   
    24    10    38 1   
    25    10    39 1   
    26    12    13 1   
    27    12    40 1   
    28    13    15 1   
    29    13    16 1   
    30    13    41 1   
    31    14    19 1   
    32    14    20 1   
    33    14    42 1   
    34    15    43 1   
    35    15    44 1   
    36    15    45 1   
    37    16    17 1   
    38    16    18 1   
    39    19    21 1   
    40    19    46 1   
    41    20    25 1   
    42    20    26 1   
    43    21    22 1   
    44    21    23 2   
    45    22    24 1   
    46    22    47 1   
    47    22    48 1   
    48    24    49 1   
    49    24    50 1   
    50    24    51 1   
@<TRIPOS>SUBSTRUCTURE
     1 REX         1 TEMP              0 ****  ****    0 ROOT
