@<TRIPOS>MOLECULE
REY
   41    40     1     0     0
SMALL
bcc


@<TRIPOS>ATOM
      1 C1           0.6030     0.9520    -0.0350 c3         1 REY      -0.067400
      2 C2          -0.7800     0.4760     0.3910 c3         1 REY      -0.079400
      3 C3           1.7180     0.1630     0.6410 c3         1 REY      -0.159400
      4 C4          -1.8950     1.2860    -0.2600 c3         1 REY      -0.079400
      5 C5           3.0990     0.6550     0.2600 c          1 REY       0.653100
      6 N1           3.9890    -0.3020    -0.0210 ns         1 REY      -0.534900
      7 O1           3.3700     1.8520     0.2310 o          1 REY      -0.655100
      8 C6           5.3880    -0.0710    -0.3060 c3         1 REY      -0.041300
      9 C7           6.1850    -1.3730    -0.0490 c          1 REY       0.925600
     10 C8           5.6080     0.4050    -1.7410 c3         1 REY      -0.077100
     11 O2           7.4220    -1.2670    -0.1220 o          1 REY      -0.835800
     12 C9          -3.2990     0.8330     0.1280 c3         1 REY      -0.059300
     13 N3          -3.5200    -0.5180    -0.3470 ns         1 REY      -0.453900
     14 C10         -4.3820     1.8170    -0.3960 c          1 REY       0.929600
     15 C11         -4.5370    -1.2620     0.0740 c          1 REY       0.647100
     16 C12         -4.8260    -2.4820    -0.7860 c3         1 REY       0.002800
     17 O3          -5.2230    -1.0320     1.0600 o          1 REY      -0.623100
     18 N4          -5.6000    -3.4590     0.0010 nz         1 REY      -0.813600
     19 O4          -5.2130     1.3810    -1.2090 o          1 REY      -0.812300
     20 O5          -4.3010     2.9720     0.0650 o          1 REY      -0.812300
     21 O6           5.5300    -2.4090     0.1850 o          1 REY      -0.835800
     22 HC11         0.7130     2.0130     0.1980 hc         1 REY       0.051700
     23 HC12         0.6970     0.8620    -1.1220 hc         1 REY       0.051700
     24 HC21        -0.8900    -0.5850     0.1450 hc         1 REY       0.022700
     25 HC22        -0.8740     0.5470     1.4800 hc         1 REY       0.022700
     26 HC31         1.6100    -0.9020     0.4210 hc         1 REY       0.043700
     27 HC32         1.6230     0.2620     1.7280 hc         1 REY       0.043700
     28 HC41        -1.7930     2.3340     0.0240 hc         1 REY       0.063200
     29 HC42        -1.7910     1.2520    -1.3510 hc         1 REY       0.063200
     30 HN1          3.7390    -1.2740     0.0880 hn         1 REY       0.333500
     31 HC6          5.7650     0.6990     0.3740 h1         1 REY       0.052700
     32 HC81         6.6650     0.5970    -1.9190 hc         1 REY       0.023700
     33 HC82         5.2740    -0.3490    -2.4560 hc         1 REY       0.023700
     34 HC83         5.0600     1.3250    -1.9390 hc         1 REY       0.023700
     35 HC9         -3.3690     0.8180     1.2190 h1         1 REY       0.074700
     36 HN3         -3.0910    -0.7680    -1.2260 hn         1 REY       0.304500
     37 H121        -5.4320    -2.1860    -1.6410 hx         1 REY       0.111700
     38 H122        -3.9260    -2.9690    -1.1510 hx         1 REY       0.111700
     39 HN41        -5.0190    -3.9460     0.6830 hn         1 REY       0.453467
     40 HN42        -6.3490    -2.9980     0.5210 hn         1 REY       0.453467
     41 HN43        -6.0240    -4.1690    -0.5940 hn         1 REY       0.453467
@<TRIPOS>BOND
     1     1     2 1   
     2     1     3 1   
     3     1    22 1   
     4     1    23 1   
     5     2     4 1   
     6     2    24 1   
     7     2    25 1   
     8     3     5 1   
     9     3    26 1   
    10     3    27 1   
    11     4    12 1   
    12     4    28 1   
    13     4    29 1   
    14     5     6 1   
    15     5     7 2   
    16     6     8 1   
    17     6    30 1   
    18     8     9 1   
    19     8    10 1   
    20     8    31 1   
    21     9    11 1   
    22     9    21 1   
    23    10    32 1   
    24    10    33 1   
    25    10    34 1   
    26    12    13 1   
    27    12    14 1   
    28    12    35 1   
    29    13    15 1   
    30    13    36 1   
    31    14    19 1   
    32    14    20 1   
    33    15    16 1   
    34    15    17 2   
    35    16    18 1   
    36    16    37 1   
    37    16    38 1   
    38    18    39 1   
    39    18    40 1   
    40    18    41 1   
@<TRIPOS>SUBSTRUCTURE
     1 REY         1 TEMP              0 ****  ****    0 ROOT
