@<TRIPOS>MOLECULE
REY
   41    40     1     0     0
SMALL
No Charge or Current Charge


@<TRIPOS>ATOM
      1 C1           0.5100     0.9380     0.1230 c3         1 REY      -0.067400
      2 C2          -0.9880     0.6090     0.3050 c3         1 REY      -0.079400
      3 C3           1.4330     0.0570     0.9970 c3         1 REY      -0.159400
      4 C4          -1.9110     1.4880    -0.5710 c3         1 REY      -0.079400
      5 C5           2.9120     0.4050     0.7820 c          1 REY       0.586100
      6 N1           3.6280    -0.5250     0.0620 ns         1 REY      -0.467900
      7 O1           3.4240     1.4150     1.2460 o          1 REY      -0.655100
      8 C6           5.0610    -0.4190    -0.3020 c3         1 REY      -0.041300
      9 C7           5.6560    -1.8250    -0.6310 c          1 REY       0.715000
     10 C8           5.2760     0.5730    -1.4680 c3         1 REY      -0.077100
     11 O2           6.7380    -2.1220    -0.1430 o          1 REY      -0.730500
     12 C9          -3.4280     1.2370    -0.3600 c3         1 REY      -0.059300
     13 N3          -3.8240    -0.1440    -0.7270 ns         1 REY      -0.386900
     14 C10         -4.2880     2.2630    -1.1520 c          1 REY       0.719000
     15 C11         -3.9720    -1.1950     0.1540 c          1 REY       0.580100
     16 C12         -4.3710    -2.5420    -0.5060 c3         1 REY      -0.025400
     17 O3          -3.8090    -1.0820     1.3630 o          1 REY      -0.623100
     18 N4          -4.4880    -3.7100     0.4940 nz         1 REY      -0.951000
     19 O4          -4.3950     2.1200    -2.3630 o          1 REY      -0.707000
     20 O5          -4.8970     3.1140    -0.5190 o          1 REY      -0.707000
     21 O6           4.9700    -2.6150    -1.2680 o          1 REY      -0.730500
     22 HC11         0.6810     1.9940     0.3680 hc         1 REY       0.051700
     23 HC12         0.7830     0.8070    -0.9330 hc         1 REY       0.051700
     24 HC21        -1.1490    -0.4480     0.0610 hc         1 REY       0.022700
     25 HC22        -1.2600     0.7420     1.3600 hc         1 REY       0.022700
     26 HC31         1.2530    -0.9940     0.7380 hc         1 REY       0.043700
     27 HC32         1.1790     0.2270     2.0500 hc         1 REY       0.043700
     28 HC41        -1.7010     2.5430    -0.3540 hc         1 REY       0.063200
     29 HC42        -1.6620     1.3320    -1.6290 hc         1 REY       0.063200
     30 HN1          3.1170    -1.3390    -0.2640 hn         1 REY       0.333500
     31 HC6          5.6030    -0.0400     0.5740 h1         1 REY       0.052700
     32 HC81         6.3420     0.6530    -1.7090 hc         1 REY       0.023700
     33 HC82         4.7440     0.2370    -2.3660 hc         1 REY       0.023700
     34 HC83         4.9110     1.5720    -1.2040 hc         1 REY       0.023700
     35 HC9         -3.6570     1.3950     0.7020 h1         1 REY       0.074700
     36 HN3         -4.0080    -0.3370    -1.7060 hn         1 REY       0.304500
     37 H121        -5.3310    -2.3860    -1.0070 hx         1 REY       0.111700
     38 H122        -3.6090    -2.7740    -1.2570 hx         1 REY       0.111700
     39 HN41        -3.6080    -3.8980     1.0030 hn         1 REY       0.508667
     40 HN42        -5.1840    -3.5360     1.2380 hn         1 REY       0.508667
     41 HN43        -4.7590    -4.6090     0.0620 hn         1 REY       0.508667
@<TRIPOS>BOND
     1     1     2 1   
     2     1     3 1   
     3     1    22 1   
     4     1    23 1   
     5     2     4 1   
     6     2    24 1   
     7     2    25 1   
     8     3     5 1   
     9     3    26 1   
    10     3    27 1   
    11     4    12 1   
    12     4    28 1   
    13     4    29 1   
    14     5     6 1   
    15     5     7 2   
    16     6     8 1   
    17     6    30 1   
    18     8     9 1   
    19     8    10 1   
    20     8    31 1   
    21     9    11 1   
    22     9    21 1   
    23    10    32 1   
    24    10    33 1   
    25    10    34 1   
    26    12    13 1   
    27    12    14 1   
    28    12    35 1   
    29    13    15 1   
    30    13    36 1   
    31    14    19 1   
    32    14    20 1   
    33    15    16 1   
    34    15    17 2   
    35    16    18 1   
    36    16    37 1   
    37    16    38 1   
    38    18    39 1   
    39    18    40 1   
    40    18    41 1   
@<TRIPOS>SUBSTRUCTURE
     1 REY         1 TEMP              0 ****  ****    0 ROOT
