@<TRIPOS>MOLECULE
REZ
   33    32     1     0     0
SMALL
No Charge or Current Charge


@<TRIPOS>ATOM
      1 CA1         -0.1010    -6.6080     7.9650 c3         1 REZ      -0.158400
      2 CB1         -0.8520    -5.3150     7.5680 c3         1 REZ      -0.065400
      3 CG1         -1.9290    -5.5470     6.4850 c3         1 REZ      -0.077400
      4 CD1         -2.6800    -4.2490     6.0920 c3         1 REZ      -0.038400
      5 CE1         -3.7800    -4.4220     5.0070 c3         1 REZ       0.014500
      6 NZ1         -3.1700    -4.7960     3.6780 n8         1 REZ      -0.997200
      7 CZ1         -4.9670    -5.3380     5.5330 c          1 REZ       0.692000
      8 OH1         -5.8640    -4.8070     6.1730 o          1 REZ      -0.742000
      9 OH2         -5.0130    -6.5070     5.1690 o          1 REZ      -0.742000
     10 C1           0.9630    -6.3350     9.0360 c          1 REZ       0.589100
     11 O1           0.6800    -6.1360    10.2100 o          1 REZ      -0.667100
     12 N            2.2640    -6.3720     8.5840 ns         1 REZ      -0.475900
     13 CA           3.4720    -6.1230     9.4060 c3         1 REZ      -0.037300
     14 CB           3.6660    -4.6150     9.6830 c3         1 REZ      -0.076100
     15 C            4.7390    -6.7490     8.7380 c          1 REZ       0.713000
     16 O            4.8560    -6.6700     7.5210 o          1 REZ      -0.735000
     17 OXT          5.5060    -7.3900     9.4420 o          1 REZ      -0.735000
     18 HA11        -0.8290    -7.3230     8.3650 hc         1 REZ       0.048700
     19 HA12         0.3700    -7.0220     7.0650 hc         1 REZ       0.048700
     20 HB11        -0.1260    -4.5760     7.2040 hc         1 REZ       0.038700
     21 HB12        -1.3250    -4.8840     8.4600 hc         1 REZ       0.038700
     22 HG11        -2.6480    -6.2880     6.8540 hc         1 REZ       0.043700
     23 HG12        -1.4520    -5.9770     5.5960 hc         1 REZ       0.043700
     24 HD11        -3.1430    -3.8240     6.9920 hc         1 REZ       0.023200
     25 HD12        -1.9510    -3.5060     5.7450 hc         1 REZ       0.023200
     26 HE1         -4.2210    -3.4270     4.8580 h1         1 REZ       0.027700
     27 HZ11        -3.9160    -4.8320     2.9730 hn         1 REZ       0.376500
     28 HZ12        -2.8640    -5.7740     3.7360 hn         1 REZ       0.376500
     29 H            2.3970    -6.5640     7.5970 hn         1 REZ       0.336500
     30 HA           3.3330    -6.6330    10.3690 h1         1 REZ       0.045700
     31 HBC1         2.7990    -4.1980    10.2080 hc         1 REZ       0.021033
     32 HBC2         4.5520    -4.4530    10.3090 hc         1 REZ       0.021033
     33 HBC3         3.8010    -4.0620     8.7460 hc         1 REZ       0.021033
@<TRIPOS>BOND
     1     1     2 1   
     2     1    10 1   
     3     1    18 1   
     4     1    19 1   
     5     2     3 1   
     6     2    20 1   
     7     2    21 1   
     8     3     4 1   
     9     3    22 1   
    10     3    23 1   
    11     4     5 1   
    12     4    24 1   
    13     4    25 1   
    14     5     6 1   
    15     5     7 1   
    16     5    26 1   
    17     6    27 1   
    18     6    28 1   
    19     7     8 1   
    20     7     9 1   
    21    10    11 2   
    22    10    12 1   
    23    12    13 1   
    24    12    29 1   
    25    13    14 1   
    26    13    15 1   
    27    13    30 1   
    28    14    31 1   
    29    14    32 1   
    30    14    33 1   
    31    15    16 1   
    32    15    17 1   
@<TRIPOS>SUBSTRUCTURE
     1 REZ         1 TEMP              0 ****  ****    0 ROOT
