@<TRIPOS>MOLECULE
REZ
   33    32     1     0     0
SMALL
abcg2


@<TRIPOS>ATOM
      1 CA1          0.1160    -6.1770     7.6330 c3         1 REZ      -0.158400
      2 CB1         -0.9060    -5.0610     7.4550 c3         1 REZ      -0.065400
      3 CG1         -1.9200    -5.3870     6.3650 c3         1 REZ      -0.077400
      4 CD1         -2.8810    -4.2360     6.0910 c3         1 REZ      -0.038400
      5 CE1         -3.9580    -4.5480     5.0460 c3         1 REZ       0.014500
      6 NZ1         -3.3380    -4.8910     3.7730 n8         1 REZ      -0.997200
      7 CZ1         -4.9440    -5.6000     5.6090 c          1 REZ       0.692000
      8 OH1         -5.6940    -5.2100     6.5290 o          1 REZ      -0.742000
      9 OH2         -4.9020    -6.7500     5.1270 o          1 REZ      -0.742000
     10 C1           1.0700    -5.9470     8.7870 c          1 REZ       0.589100
     11 O1           0.6770    -5.5390     9.8770 o          1 REZ      -0.667100
     12 N            2.3480    -6.2480     8.5360 ns         1 REZ      -0.475900
     13 CA           3.4130    -6.2380     9.5140 c3         1 REZ      -0.037300
     14 CB           3.8900    -4.8220     9.8320 c3         1 REZ      -0.076100
     15 C            4.5900    -7.0980     8.9900 c          1 REZ       0.713000
     16 O            4.5070    -7.5320     7.8230 o          1 REZ      -0.735000
     17 OXT          5.5290    -7.2640     9.7870 o          1 REZ      -0.735000
     18 HA11        -0.4070    -7.1190     7.8320 hc         1 REZ       0.048700
     19 HA12         0.6650    -6.3290     6.7000 hc         1 REZ       0.048700
     20 HB11        -0.3900    -4.1270     7.2090 hc         1 REZ       0.038700
     21 HB12        -1.4280    -4.8860     8.3990 hc         1 REZ       0.038700
     22 HG11        -2.4740    -6.2850     6.6550 hc         1 REZ       0.043700
     23 HG12        -1.3860    -5.6420     5.4430 hc         1 REZ       0.043700
     24 HD11        -3.3690    -3.9340     7.0220 hc         1 REZ       0.023200
     25 HD12        -2.3050    -3.3700     5.7490 hc         1 REZ       0.023200
     26 HE1         -4.5240    -3.6220     4.8920 h1         1 REZ       0.027700
     27 HZ11        -4.0500    -4.8710     3.0520 hn         1 REZ       0.376500
     28 HZ12        -3.0610    -5.8650     3.8170 hn         1 REZ       0.376500
     29 H            2.6120    -6.6360     7.6420 hn         1 REZ       0.336500
     30 HA           3.0510    -6.6960    10.4400 h1         1 REZ       0.045700
     31 HBC1         3.0740    -4.2150    10.2220 hc         1 REZ       0.021033
     32 HBC2         4.6810    -4.8460    10.5800 hc         1 REZ       0.021033
     33 HBC3         4.2800    -4.3320     8.9380 hc         1 REZ       0.021033
@<TRIPOS>BOND
     1     1     2 1   
     2     1    10 1   
     3     1    18 1   
     4     1    19 1   
     5     2     3 1   
     6     2    20 1   
     7     2    21 1   
     8     3     4 1   
     9     3    22 1   
    10     3    23 1   
    11     4     5 1   
    12     4    24 1   
    13     4    25 1   
    14     5     6 1   
    15     5     7 1   
    16     5    26 1   
    17     6    27 1   
    18     6    28 1   
    19     7     8 1   
    20     7     9 1   
    21    10    11 2   
    22    10    12 1   
    23    12    13 1   
    24    12    29 1   
    25    13    14 1   
    26    13    15 1   
    27    13    30 1   
    28    14    31 1   
    29    14    32 1   
    30    14    33 1   
    31    15    16 1   
    32    15    17 1   
@<TRIPOS>SUBSTRUCTURE
     1 REZ         1 TEMP              0 ****  ****    0 ROOT
