@<TRIPOS>MOLECULE
RF1
   44    46     1     0     0
SMALL
No Charge or Current Charge


@<TRIPOS>ATOM
      1 C14         -5.7910     1.7870     0.9340 c3         1 RF1      -0.108767
      2 C10         -5.9110     0.7620    -0.2240 c3         1 RF1       0.225000
      3 C15         -7.0140    -0.3020     0.0150 c3         1 RF1      -0.108767
      4 C16         -6.1740     1.5020    -1.5540 c3         1 RF1      -0.108767
      5 O2          -4.6370     0.1090    -0.4300 os         1 RF1      -0.476100
      6 C3          -4.0290    -0.6640     0.5310 c          1 RF1       0.659100
      7 O3          -4.4800    -0.8990     1.6410 o          1 RF1      -0.547000
      8 N3          -2.7910    -1.1740     0.0860 n          1 RF1      -0.407800
      9 C7          -1.9130    -1.9850     0.9670 c6         1 RF1       0.108000
     10 C12         -0.5630    -1.2670     1.2050 c6         1 RF1      -0.098900
     11 C6          -2.1810    -0.8650    -1.2370 c6         1 RF1       0.108000
     12 C13         -0.8390    -0.1150    -1.0560 c6         1 RF1      -0.098900
     13 C5           0.1310    -0.9200    -0.1440 c6         1 RF1      -0.100000
     14 C2           1.4200    -0.1610     0.0850 cc         1 RF1       0.494300
     15 N1           2.6350    -0.5360    -0.2510 nd         1 RF1      -0.724000
     16 O1           1.3900     1.0530     0.7040 os         1 RF1      -0.086700
     17 N2           2.7290     1.4910     0.7640 nc         1 RF1      -0.367300
     18 C1           3.4060     0.5110     0.1860 cd         1 RF1       0.640500
     19 C4           4.8290     0.5400     0.0290 cd         1 RF1      -0.297500
     20 C8           5.6170     1.5790     0.4610 cc         1 RF1      -0.082000
     21 C11          6.9900     1.3650     0.1870 cc         1 RF1      -0.141000
     22 C9           7.2500     0.1750    -0.4480 cd         1 RF1      -0.252000
     23 S1           5.7610    -0.7510    -0.7370 ss         1 RF1       0.299000
     24 H14         -5.7420     1.2980     1.9120 hc         1 RF1       0.049256
     25 H14A        -4.8970     2.4100     0.8110 hc         1 RF1       0.049256
     26 H14B        -6.6650     2.4500     0.9480 hc         1 RF1       0.049256
     27 H15         -8.0070     0.1550    -0.0630 hc         1 RF1       0.049256
     28 H15A        -6.9500    -1.1020    -0.7320 hc         1 RF1       0.049256
     29 H15B        -6.9420    -0.7510     1.0110 hc         1 RF1       0.049256
     30 H16         -5.3780     2.2270    -1.7610 hc         1 RF1       0.049256
     31 H16A        -6.2180     0.7940    -2.3910 hc         1 RF1       0.049256
     32 H16B        -7.1270     2.0430    -1.5180 hc         1 RF1       0.049256
     33 H7          -2.3970    -2.1810     1.9340 h1         1 RF1       0.063700
     34 H7A         -1.7320    -2.9610     0.4930 h1         1 RF1       0.063700
     35 H12         -0.7420    -0.3510     1.7860 hc         1 RF1       0.063700
     36 H12A         0.0920    -1.9030     1.8170 hc         1 RF1       0.063700
     37 H6          -2.0010    -1.8080    -1.7730 h1         1 RF1       0.063700
     38 H6A         -2.8470    -0.2640    -1.8710 h1         1 RF1       0.063700
     39 H13         -0.3780     0.0600    -2.0380 hc         1 RF1       0.063700
     40 H13A        -1.0380     0.8740    -0.6210 hc         1 RF1       0.063700
     41 H5           0.3720    -1.8630    -0.6530 hc         1 RF1       0.082700
     42 H8           5.2560     2.4770     0.9580 ha         1 RF1       0.147000
     43 H11          7.7540     2.0880     0.4610 ha         1 RF1       0.138000
     44 H9           8.2060    -0.2240    -0.7650 h4         1 RF1       0.151000
@<TRIPOS>BOND
     1     1     2 1   
     2     1    24 1   
     3     1    25 1   
     4     1    26 1   
     5     2     3 1   
     6     2     4 1   
     7     2     5 1   
     8     3    27 1   
     9     3    28 1   
    10     3    29 1   
    11     4    30 1   
    12     4    31 1   
    13     4    32 1   
    14     5     6 1   
    15     6     7 2   
    16     6     8 1   
    17     8     9 1   
    18     8    11 1   
    19     9    10 1   
    20     9    33 1   
    21     9    34 1   
    22    10    13 1   
    23    10    35 1   
    24    10    36 1   
    25    11    12 1   
    26    11    37 1   
    27    11    38 1   
    28    12    13 1   
    29    12    39 1   
    30    12    40 1   
    31    13    14 1   
    32    13    41 1   
    33    14    15 2   
    34    14    16 1   
    35    15    18 1   
    36    16    17 1   
    37    17    18 2   
    38    18    19 1   
    39    19    20 2   
    40    19    23 1   
    41    20    21 1   
    42    20    42 1   
    43    21    22 2   
    44    21    43 1   
    45    22    23 1   
    46    22    44 1   
@<TRIPOS>SUBSTRUCTURE
     1 RF1         1 TEMP              0 ****  ****    0 ROOT
