@<TRIPOS>MOLECULE
RF1
   44    46     1     0     0
SMALL
bcc


@<TRIPOS>ATOM
      1 C14         -5.7180     1.7380     0.9560 c3         1 RF1      -0.108767
      2 C10         -5.7940     0.7310    -0.1870 c3         1 RF1       0.201800
      3 C15         -6.8910    -0.3020     0.0370 c3         1 RF1      -0.108767
      4 C16         -6.0380     1.4660    -1.5000 c3         1 RF1      -0.108767
      5 O2          -4.5150     0.0890    -0.4100 os         1 RF1      -0.452900
      6 C3          -3.9210    -0.6750     0.5020 c          1 RF1       0.775100
      7 O3          -4.3490    -0.8760     1.6220 o          1 RF1      -0.596000
      8 N3          -2.7760    -1.2210     0.0240 n          1 RF1      -0.474800
      9 C7          -1.9030    -1.9690     0.9070 c6         1 RF1       0.108000
     10 C12         -0.6140    -1.2040     1.1750 c6         1 RF1      -0.098900
     11 C6          -2.1710    -0.9050    -1.2580 c6         1 RF1       0.108000
     12 C13         -0.8970    -0.0930    -1.0690 c6         1 RF1      -0.098900
     13 C5           0.0720    -0.8450    -0.1490 c6         1 RF1      -0.100000
     14 C2           1.3370    -0.0970     0.0650 cc         1 RF1       0.538700
     15 N1           2.5400    -0.4700    -0.2060 nd         1 RF1      -0.724000
     16 O1           1.2910     1.1140     0.6050 os         1 RF1      -0.131100
     17 N2           2.5740     1.5770     0.6940 nc         1 RF1      -0.367300
     18 C1           3.2800     0.6030     0.2010 cd         1 RF1       0.640500
     19 C4           4.7190     0.6360     0.0870 cd         1 RF1      -0.152600
     20 C8           5.5840     1.6290     0.4520 cc         1 RF1      -0.100000
     21 C11          6.9320     1.2960     0.1840 cc         1 RF1      -0.159000
     22 C9           7.0590     0.0600    -0.3790 cd         1 RF1      -0.125100
     23 S1           5.5500    -0.7090    -0.5880 ss         1 RF1       0.009200
     24 H14         -5.6220     1.2610     1.9270 hc         1 RF1       0.049256
     25 H14A        -4.8790     2.4210     0.8170 hc         1 RF1       0.049256
     26 H14B        -6.6280     2.3380     0.9670 hc         1 RF1       0.049256
     27 H15         -7.8620     0.1950     0.0370 hc         1 RF1       0.049256
     28 H15A        -6.9020    -1.0410    -0.7660 hc         1 RF1       0.049256
     29 H15B        -6.7880    -0.8230     0.9860 hc         1 RF1       0.049256
     30 H16         -5.2620     2.2100    -1.6870 hc         1 RF1       0.049256
     31 H16A        -6.0630     0.7770    -2.3450 hc         1 RF1       0.049256
     32 H16B        -6.9950     1.9860    -1.4670 hc         1 RF1       0.049256
     33 H7          -2.4180    -2.1870     1.8380 h1         1 RF1       0.063700
     34 H7A         -1.6700    -2.9300     0.4370 h1         1 RF1       0.063700
     35 H12         -0.8420    -0.2980     1.7430 hc         1 RF1       0.063700
     36 H12A         0.0500    -1.8160     1.7890 hc         1 RF1       0.063700
     37 H6          -1.9330    -1.8460    -1.7660 h1         1 RF1       0.063700
     38 H6A         -2.8690    -0.3740    -1.8960 h1         1 RF1       0.063700
     39 H13         -0.4340     0.0810    -2.0420 hc         1 RF1       0.063700
     40 H13A        -1.1470     0.8830    -0.6470 hc         1 RF1       0.063700
     41 H5           0.3680    -1.7740    -0.6480 hc         1 RF1       0.082700
     42 H8           5.2600     2.5580     0.8970 ha         1 RF1       0.165000
     43 H11          7.7690     1.9430     0.3990 ha         1 RF1       0.156000
     44 H9           7.9690    -0.4360    -0.6780 h4         1 RF1       0.169000
@<TRIPOS>BOND
     1     1     2 1   
     2     1    24 1   
     3     1    25 1   
     4     1    26 1   
     5     2     3 1   
     6     2     4 1   
     7     2     5 1   
     8     3    27 1   
     9     3    28 1   
    10     3    29 1   
    11     4    30 1   
    12     4    31 1   
    13     4    32 1   
    14     5     6 1   
    15     6     7 2   
    16     6     8 1   
    17     8     9 1   
    18     8    11 1   
    19     9    10 1   
    20     9    33 1   
    21     9    34 1   
    22    10    13 1   
    23    10    35 1   
    24    10    36 1   
    25    11    12 1   
    26    11    37 1   
    27    11    38 1   
    28    12    13 1   
    29    12    39 1   
    30    12    40 1   
    31    13    14 1   
    32    13    41 1   
    33    14    15 2   
    34    14    16 1   
    35    15    18 1   
    36    16    17 1   
    37    17    18 2   
    38    18    19 1   
    39    19    20 2   
    40    19    23 1   
    41    20    21 1   
    42    20    42 1   
    43    21    22 2   
    44    21    43 1   
    45    22    23 1   
    46    22    44 1   
@<TRIPOS>SUBSTRUCTURE
     1 RF1         1 TEMP              0 ****  ****    0 ROOT
