@<TRIPOS>MOLECULE
RF3
   41    44     1     0     0
SMALL
No Charge or Current Charge


@<TRIPOS>ATOM
      1 C40          6.7230    -0.4230    -0.6600 cc         1 RF3      -0.126000
      2 C38          7.8500     0.3470    -0.2820 cc         1 RF3      -0.134000
      3 C36          7.5310     1.5960     0.1840 cd         1 RF3      -0.241000
      4 S35          5.7770     1.8610     0.1700 ss         1 RF3       0.231000
      5 C01          5.5300     0.2280    -0.4850 cd         1 RF3      -0.206300
      6 C02          4.1400    -0.2920    -0.7870 c3         1 RF3      -0.081100
      7 C05          3.2730    -0.7380     0.4130 c          1 RF3       0.605100
      8 O07          3.6350    -0.5140     1.5630 o          1 RF3      -0.582100
      9 N06          2.0630    -1.4370     0.1670 n          1 RF3      -0.415800
     10 C19          1.2040    -1.9330     1.2750 c6         1 RF3       0.097000
     11 C16         -0.0950    -1.0990     1.3760 c6         1 RF3      -0.097400
     12 C08          1.3780    -1.4840    -1.1560 c6         1 RF3       0.097000
     13 C11          0.0840    -0.6370    -1.1290 c6         1 RF3      -0.097400
     14 C14         -0.8600    -1.0960     0.0210 c6         1 RF3      -0.098000
     15 C22         -2.0960    -0.2260     0.0930 cc         1 RF3       0.494300
     16 N26         -3.3460    -0.6040    -0.0670 nd         1 RF3      -0.726000
     17 O23         -1.9710     1.1070     0.3480 os         1 RF3      -0.086700
     18 N24         -3.2820     1.6250     0.3500 nc         1 RF3      -0.367300
     19 C25         -4.0390     0.5690     0.1000 cd         1 RF3       0.642500
     20 C27         -5.4660     0.6400     0.0110 cd         1 RF3      -0.297500
     21 C28         -6.1770     1.8040     0.1750 cc         1 RF3      -0.081000
     22 C30         -7.5730     1.6080     0.0380 cc         1 RF3      -0.142000
     23 C32         -7.9270     0.3070    -0.2280 cd         1 RF3      -0.250000
     24 S34         -6.5030    -0.7520    -0.3210 ss         1 RF3       0.297000
     25 H40          6.8160    -1.4330    -1.0490 ha         1 RF3       0.129000
     26 H38          8.8650    -0.0320    -0.3630 ha         1 RF3       0.133000
     27 H36          8.1980     2.3750     0.5340 h4         1 RF3       0.149000
     28 H02          3.5540     0.4410    -1.3530 hc         1 RF3       0.067700
     29 H02A         4.1730    -1.1220    -1.5010 hc         1 RF3       0.067700
     30 H19          0.9490    -2.9860     1.0840 h1         1 RF3       0.060450
     31 H19A         1.7370    -1.9040     2.2350 h1         1 RF3       0.060450
     32 H16         -0.7350    -1.5060     2.1710 hc         1 RF3       0.063950
     33 H16A         0.1600    -0.0720     1.6720 hc         1 RF3       0.063950
     34 H08          2.0220    -1.1310    -1.9710 h1         1 RF3       0.060450
     35 H08A         1.1240    -2.5290    -1.3860 h1         1 RF3       0.060450
     36 H11          0.3500     0.4220    -1.0020 hc         1 RF3       0.063950
     37 H11A        -0.4310    -0.7170    -2.0960 hc         1 RF3       0.063950
     38 H14         -1.1760    -2.1270    -0.1920 hc         1 RF3       0.084700
     39 H28         -5.7450     2.7800     0.3860 ha         1 RF3       0.147000
     40 H30         -8.2850     2.4230     0.1380 ha         1 RF3       0.138000
     41 H32         -8.9180    -0.1040    -0.3750 h4         1 RF3       0.152000
@<TRIPOS>BOND
     1     1     2 1   
     2     1     5 2   
     3     1    25 1   
     4     2     3 2   
     5     2    26 1   
     6     3     4 1   
     7     3    27 1   
     8     4     5 1   
     9     5     6 1   
    10     6     7 1   
    11     6    28 1   
    12     6    29 1   
    13     7     8 2   
    14     7     9 1   
    15     9    10 1   
    16     9    12 1   
    17    10    11 1   
    18    10    30 1   
    19    10    31 1   
    20    11    14 1   
    21    11    32 1   
    22    11    33 1   
    23    12    13 1   
    24    12    34 1   
    25    12    35 1   
    26    13    14 1   
    27    13    36 1   
    28    13    37 1   
    29    14    15 1   
    30    14    38 1   
    31    15    16 2   
    32    15    17 1   
    33    16    19 1   
    34    17    18 1   
    35    18    19 2   
    36    19    20 1   
    37    20    21 2   
    38    20    24 1   
    39    21    22 1   
    40    21    39 1   
    41    22    23 2   
    42    22    40 1   
    43    23    24 1   
    44    23    41 1   
@<TRIPOS>SUBSTRUCTURE
     1 RF3         1 TEMP              0 ****  ****    0 ROOT
