@<TRIPOS>MOLECULE
RF3
   41    44     1     0     0
SMALL
bcc


@<TRIPOS>ATOM
      1 C40          6.5580    -0.3690    -0.8540 cc         1 RF3      -0.144000
      2 C38          7.6570     0.4120    -0.4010 cc         1 RF3      -0.152000
      3 C36          7.2610     1.5210     0.2800 cd         1 RF3      -0.114100
      4 S35          5.5520     1.6170     0.3780 ss         1 RF3      -0.058800
      5 C01          5.3480     0.1550    -0.5080 cd         1 RF3      -0.061400
      6 C02          3.9980    -0.3830    -0.8330 c3         1 RF3      -0.081100
      7 C05          3.2600    -0.9100     0.3940 c          1 RF3       0.672100
      8 O07          3.7600    -0.8270     1.5050 o          1 RF3      -0.582100
      9 N06          2.0490    -1.4700     0.1830 n          1 RF3      -0.482800
     10 C19          1.2270    -1.9050     1.2990 c6         1 RF3       0.097000
     11 C16         -0.0030    -1.0150     1.4390 c6         1 RF3      -0.097400
     12 C08          1.3460    -1.5000    -1.0870 c6         1 RF3       0.097000
     13 C11          0.1180    -0.5970    -1.0430 c6         1 RF3      -0.097400
     14 C14         -0.7910    -1.0080     0.1230 c6         1 RF3      -0.098000
     15 C22         -2.0050    -0.1580     0.1910 cc         1 RF3       0.538700
     16 N26         -3.2310    -0.5010    -0.0250 nd         1 RF3      -0.726000
     17 O23         -1.8890     1.1290     0.4870 os         1 RF3      -0.131100
     18 N24         -3.1430     1.6770     0.4630 nc         1 RF3      -0.367300
     19 C25         -3.9080     0.6710     0.1530 cd         1 RF3       0.642500
     20 C27         -5.3410     0.7610     0.0030 cd         1 RF3      -0.152600
     21 C28         -6.1550     1.8530     0.1370 cc         1 RF3      -0.099000
     22 C30         -7.5160     1.5410    -0.0900 cc         1 RF3      -0.160000
     23 C32         -7.7070     0.2240    -0.3910 cd         1 RF3      -0.123100
     24 S34         -6.2400    -0.6490    -0.4020 ss         1 RF3       0.007200
     25 H40          6.6600    -1.2850    -1.4210 ha         1 RF3       0.147000
     26 H38          8.6930     0.1580    -0.5760 ha         1 RF3       0.151000
     27 H36          7.8780     2.2830     0.7310 h4         1 RF3       0.167000
     28 H02          3.3880     0.3830    -1.3210 hc         1 RF3       0.067700
     29 H02A         4.1180    -1.1830    -1.5670 hc         1 RF3       0.067700
     30 H19          0.9170    -2.9400     1.1230 h1         1 RF3       0.060450
     31 H19A         1.8140    -1.8910     2.2120 h1         1 RF3       0.060450
     32 H16         -0.6260    -1.3900     2.2520 hc         1 RF3       0.063950
     33 H16A         0.3130    -0.0030     1.7030 hc         1 RF3       0.063950
     34 H08          1.9960    -1.2020    -1.9040 h1         1 RF3       0.060450
     35 H08A         1.0410    -2.5310    -1.2890 h1         1 RF3       0.060450
     36 H11          0.4390     0.4420    -0.9310 hc         1 RF3       0.063950
     37 H11A        -0.4200    -0.6750    -1.9900 hc         1 RF3       0.063950
     38 H14         -1.1580    -2.0220    -0.0680 hc         1 RF3       0.084700
     39 H28         -5.7920     2.8390     0.3880 ha         1 RF3       0.165000
     40 H30         -8.3180     2.2620    -0.0330 ha         1 RF3       0.156000
     41 H32         -8.6370    -0.2780    -0.6090 h4         1 RF3       0.170000
@<TRIPOS>BOND
     1     1     2 1   
     2     1     5 2   
     3     1    25 1   
     4     2     3 2   
     5     2    26 1   
     6     3     4 1   
     7     3    27 1   
     8     4     5 1   
     9     5     6 1   
    10     6     7 1   
    11     6    28 1   
    12     6    29 1   
    13     7     8 2   
    14     7     9 1   
    15     9    10 1   
    16     9    12 1   
    17    10    11 1   
    18    10    30 1   
    19    10    31 1   
    20    11    14 1   
    21    11    32 1   
    22    11    33 1   
    23    12    13 1   
    24    12    34 1   
    25    12    35 1   
    26    13    14 1   
    27    13    36 1   
    28    13    37 1   
    29    14    15 1   
    30    14    38 1   
    31    15    16 2   
    32    15    17 1   
    33    16    19 1   
    34    17    18 1   
    35    18    19 2   
    36    19    20 1   
    37    20    21 2   
    38    20    24 1   
    39    21    22 1   
    40    21    39 1   
    41    22    23 2   
    42    22    40 1   
    43    23    24 1   
    44    23    41 1   
@<TRIPOS>SUBSTRUCTURE
     1 RF3         1 TEMP              0 ****  ****    0 ROOT
