@<TRIPOS>MOLECULE
RF4
   44    46     1     0     0
SMALL
No Charge or Current Charge


@<TRIPOS>ATOM
      1 C01          5.2440    -0.2910    -1.2400 ca         1 RF4      -0.083800
      2 C02          6.6020    -0.6490    -1.1390 ca         1 RF4      -0.111500
      3 C03          7.3260    -0.3640     0.0290 ca         1 RF4      -0.119000
      4 C04          6.7010     0.2850     1.1070 ca         1 RF4      -0.111500
      5 C05          5.3440     0.6510     1.0260 ca         1 RF4      -0.083800
      6 C06          4.6160     0.3520    -0.1480 ca         1 RF4       0.107100
      7 O07          3.2870     0.6980    -0.2340 os         1 RF4      -0.373100
      8 C08          2.2960    -0.2390     0.2140 c3         1 RF4       0.174600
      9 C09          4.4730    -0.6020    -2.5190 c3         1 RF4      -0.042800
     10 C10          4.6830     1.3610     2.2040 c3         1 RF4      -0.042800
     11 C11          0.9170     0.4050     0.0020 c3         1 RF4       0.000600
     12 S12         -0.4260    -0.7370     0.5580 ss         1 RF4      -0.155200
     13 C13         -1.8830     0.1980     0.2230 cc         1 RF4       0.452700
     14 N14         -3.1560    -0.2940     0.5090 na         1 RF4      -0.093600
     15 C15         -4.0220     0.6950     0.1400 ca         1 RF4      -0.075200
     16 C16         -3.2540     1.7310    -0.3390 ca         1 RF4       0.070400
     17 N17         -1.8890     1.4400    -0.2930 nd         1 RF4      -0.617100
     18 C18         -5.4230     0.7520     0.1890 ca         1 RF4      -0.094000
     19 C19         -6.0460     1.9300    -0.2730 ca         1 RF4      -0.127000
     20 C20         -5.2670     3.0040    -0.7650 ca         1 RF4      -0.151000
     21 C21         -3.8580     2.9090    -0.8010 ca         1 RF4      -0.066000
     22 C22         -3.5740    -1.6020     1.0560 c3         1 RF4      -0.098400
     23 C23         -3.9530    -2.6150    -0.0350 c          1 RF4       0.714000
     24 O24         -5.1330    -2.9040    -0.1680 o          1 RF4      -0.703500
     25 O25         -3.0570    -3.0900    -0.7180 o          1 RF4      -0.703500
     26 H1           7.0990    -1.1480    -1.9680 ha         1 RF4       0.106500
     27 H2           8.3750    -0.6440     0.0990 ha         1 RF4       0.106000
     28 H3           7.2750     0.5020     2.0050 ha         1 RF4       0.106500
     29 H4           2.3580    -1.1740    -0.3580 h1         1 RF4       0.038700
     30 H5           2.4340    -0.4730     1.2770 h1         1 RF4       0.038700
     31 H6           3.8770     0.2590    -2.8440 hc         1 RF4       0.045200
     32 H7           5.1460    -0.8630    -3.3440 hc         1 RF4       0.045200
     33 H8           3.7900    -1.4470    -2.3690 hc         1 RF4       0.045200
     34 H9           4.0670     2.2030     1.8670 hc         1 RF4       0.045200
     35 H10          4.0380     0.6740     2.7630 hc         1 RF4       0.045200
     36 H11          5.4260     1.7610     2.9030 hc         1 RF4       0.045200
     37 H12          0.8550     1.3380     0.5760 h1         1 RF4       0.078700
     38 H13          0.7770     0.6340    -1.0610 h1         1 RF4       0.078700
     39 H14         -6.0130    -0.0800     0.5670 ha         1 RF4       0.117000
     40 H15         -7.1300     2.0120    -0.2500 ha         1 RF4       0.093000
     41 H16         -5.7560     3.9080    -1.1190 ha         1 RF4       0.092000
     42 H17         -3.2540     3.7300    -1.1800 ha         1 RF4       0.110000
     43 H18         -2.7560    -2.0280     1.6500 h1         1 RF4       0.048700
     44 H19         -4.4320    -1.4590     1.7240 h1         1 RF4       0.048700
@<TRIPOS>BOND
     1     1     2 ar  
     2     1     6 ar  
     3     1     9 1   
     4     2     3 ar  
     5     2    26 1   
     6     3     4 ar  
     7     3    27 1   
     8     4     5 ar  
     9     4    28 1   
    10     5     6 ar  
    11     5    10 1   
    12     6     7 1   
    13     7     8 1   
    14     8    11 1   
    15     8    29 1   
    16     8    30 1   
    17     9    31 1   
    18     9    32 1   
    19     9    33 1   
    20    10    34 1   
    21    10    35 1   
    22    10    36 1   
    23    11    12 1   
    24    11    37 1   
    25    11    38 1   
    26    12    13 1   
    27    13    14 1   
    28    13    17 2   
    29    14    15 1   
    30    14    22 1   
    31    15    16 ar  
    32    15    18 ar  
    33    16    17 1   
    34    16    21 ar  
    35    18    19 ar  
    36    18    39 1   
    37    19    20 ar  
    38    19    40 1   
    39    20    21 ar  
    40    20    41 1   
    41    21    42 1   
    42    22    23 1   
    43    22    43 1   
    44    22    44 1   
    45    23    24 1   
    46    23    25 1   
@<TRIPOS>SUBSTRUCTURE
     1 RF4         1 TEMP              0 ****  ****    0 ROOT
