@<TRIPOS>MOLECULE
RF4
   44    46     1     0     0
SMALL
abcg2


@<TRIPOS>ATOM
      1 C01          4.9920     0.1060    -1.2710 ca         1 RF4      -0.083800
      2 C02          6.3180    -0.3100    -1.3470 ca         1 RF4      -0.111500
      3 C03          7.0820    -0.4710    -0.2010 ca         1 RF4      -0.119000
      4 C04          6.5280    -0.2010     1.0420 ca         1 RF4      -0.111500
      5 C05          5.2050     0.2160     1.1610 ca         1 RF4      -0.083800
      6 C06          4.4550     0.3570    -0.0070 ca         1 RF4       0.107100
      7 O07          3.1610     0.7970     0.0850 os         1 RF4      -0.373100
      8 C08          2.1860    -0.2330     0.1550 c3         1 RF4       0.174600
      9 C09          4.1710     0.3060    -2.5110 c3         1 RF4      -0.042800
     10 C10          4.6120     0.5350     2.5030 c3         1 RF4      -0.042800
     11 C11          0.8280     0.4300     0.0310 c3         1 RF4       0.000600
     12 S12         -0.4330    -0.8800     0.1250 ss         1 RF4      -0.155200
     13 C13         -1.8600     0.0820    -0.1700 cc         1 RF4       0.452700
     14 N14         -3.0110    -0.1530     0.5120 na         1 RF4      -0.093600
     15 C15         -3.9340     0.7360     0.0230 ca         1 RF4      -0.075200
     16 C16         -3.2390     1.5020    -0.9290 ca         1 RF4       0.070400
     17 N17         -1.9440     1.0600    -1.0300 nd         1 RF4      -0.617100
     18 C18         -5.2750     0.9550     0.3160 ca         1 RF4      -0.094000
     19 C19         -5.9080     1.9750    -0.3750 ca         1 RF4      -0.127000
     20 C20         -5.2280     2.7500    -1.3260 ca         1 RF4      -0.151000
     21 C21         -3.8930     2.5260    -1.6130 ca         1 RF4      -0.066000
     22 C22         -3.2380    -1.2010     1.4760 c3         1 RF4      -0.098400
     23 C23         -3.1870    -2.6230     0.8700 c          1 RF4       0.714000
     24 O24         -2.7580    -2.7220    -0.2900 o          1 RF4      -0.703500
     25 O25         -3.5590    -3.5260     1.6380 o          1 RF4      -0.703500
     26 H1           6.7550    -0.5070    -2.3190 ha         1 RF4       0.106500
     27 H2           8.1120    -0.7920    -0.2770 ha         1 RF4       0.106000
     28 H3           7.1300    -0.3130     1.9370 ha         1 RF4       0.106500
     29 H4           2.3260    -0.9570    -0.6550 h1         1 RF4       0.038700
     30 H5           2.2670    -0.7780     1.1020 h1         1 RF4       0.038700
     31 H6           3.6830     1.2800    -2.5200 hc         1 RF4       0.045200
     32 H7           4.7950     0.2340    -3.4010 hc         1 RF4       0.045200
     33 H8           3.3830    -0.4450    -2.6070 hc         1 RF4       0.045200
     34 H9           4.2050     1.5460     2.5330 hc         1 RF4       0.045200
     35 H10          3.8000    -0.1440     2.7690 hc         1 RF4       0.045200
     36 H11          5.3670     0.4560     3.2840 hc         1 RF4       0.045200
     37 H12          0.6720     1.1480     0.8360 h1         1 RF4       0.078700
     38 H13          0.7420     0.9430    -0.9260 h1         1 RF4       0.078700
     39 H14         -5.8110     0.3650     1.0480 ha         1 RF4       0.117000
     40 H15         -6.9520     2.1780    -0.1760 ha         1 RF4       0.093000
     41 H16         -5.7620     3.5360    -1.8420 ha         1 RF4       0.092000
     42 H17         -3.3680     3.1230    -2.3480 ha         1 RF4       0.110000
     43 H18         -2.4880    -1.1280     2.2680 h1         1 RF4       0.048700
     44 H19         -4.2050    -1.0270     1.9480 h1         1 RF4       0.048700
@<TRIPOS>BOND
     1     1     2 ar  
     2     1     6 ar  
     3     1     9 1   
     4     2     3 ar  
     5     2    26 1   
     6     3     4 ar  
     7     3    27 1   
     8     4     5 ar  
     9     4    28 1   
    10     5     6 ar  
    11     5    10 1   
    12     6     7 1   
    13     7     8 1   
    14     8    11 1   
    15     8    29 1   
    16     8    30 1   
    17     9    31 1   
    18     9    32 1   
    19     9    33 1   
    20    10    34 1   
    21    10    35 1   
    22    10    36 1   
    23    11    12 1   
    24    11    37 1   
    25    11    38 1   
    26    12    13 1   
    27    13    14 1   
    28    13    17 2   
    29    14    15 1   
    30    14    22 1   
    31    15    16 ar  
    32    15    18 ar  
    33    16    17 1   
    34    16    21 ar  
    35    18    19 ar  
    36    18    39 1   
    37    19    20 ar  
    38    19    40 1   
    39    20    21 ar  
    40    20    41 1   
    41    21    42 1   
    42    22    23 1   
    43    22    43 1   
    44    22    44 1   
    45    23    24 1   
    46    23    25 1   
@<TRIPOS>SUBSTRUCTURE
     1 RF4         1 TEMP              0 ****  ****    0 ROOT
