@<TRIPOS>MOLECULE
RF6
   24    24     1     0     0
SMALL
No Charge or Current Charge


@<TRIPOS>ATOM
      1 C6          32.7710   -20.1830    22.9900 c3         1 RF6      -0.136200
      2 C7          33.4470   -19.3500    21.8820 c3         1 RF6      -0.086100
      3 N1          32.1750   -22.4650    22.3090 nb         1 RF6      -0.255000
      4 C2          29.6140   -21.7800    21.5430 ca         1 RF6       0.167300
      5 C4          31.7700   -21.1840    22.4340 ca         1 RF6       0.167300
      6 N           30.0180   -23.0610    21.4220 nb         1 RF6      -0.255000
      7 C           27.2240   -21.3560    22.3100 c3         1 RF6      -0.086100
      8 C3          31.2740   -23.3250    21.8130 ca         1 RF6       0.371900
      9 C5          30.4740   -20.7930    22.0550 ca         1 RF6      -0.275000
     10 H1          33.5460   -20.6970    23.5710 hc         1 RF6       0.060950
     11 H3          34.1600   -18.6400    22.3170 hc         1 RF6       0.037700
     12 H4          33.9900   -20.0010    21.1870 hc         1 RF6       0.037700
     13 H6          31.1190   -25.2470    21.1240 hn         1 RF6       0.488000
     14 H7          32.6740   -24.8220    21.7630 hn         1 RF6       0.488000
     15 H8          26.2110   -21.1160    21.9660 hc         1 RF6       0.037700
     16 H9          27.1860   -22.3090    22.8520 hc         1 RF6       0.037700
     17 H11         28.1830   -20.4950    20.5740 hc         1 RF6       0.060950
     18 H13         30.1490   -19.7610    22.1540 ha         1 RF6       0.132000
     19 H2          32.2660   -19.5040    23.6870 hc         1 RF6       0.060950
     20 H5          32.7000   -18.7830    21.3130 hc         1 RF6       0.037700
     21 H10         27.5440   -20.5740    23.0090 hc         1 RF6       0.037700
     22 H12         27.8190   -22.2030    20.4110 hc         1 RF6       0.060950
     23 C1          28.1930   -21.4490    21.1150 c3         1 RF6      -0.136200
     24 N2          31.6810   -24.6120    21.6870 nv         1 RF6      -1.055900
@<TRIPOS>BOND
     1     1     2 1   
     2     1     5 1   
     3     1    10 1   
     4     1    19 1   
     5     2    11 1   
     6     2    12 1   
     7     2    20 1   
     8     3     5 ar  
     9     3     8 ar  
    10     4     6 ar  
    11     4     9 ar  
    12     4    23 1   
    13     5     9 ar  
    14     6     8 ar  
    15     7    15 1   
    16     7    16 1   
    17     7    21 1   
    18     7    23 1   
    19     8    24 1   
    20     9    18 1   
    21    13    24 1   
    22    14    24 1   
    23    17    23 1   
    24    22    23 1   
@<TRIPOS>SUBSTRUCTURE
     1 RF6         1 TEMP              0 ****  ****    0 ROOT
