@<TRIPOS>MOLECULE
RF6
   24    24     1     0     0
SMALL
abcg2


@<TRIPOS>ATOM
      1 C6          32.5920   -20.2810    23.1560 c3         1 RF6      -0.136200
      2 C7          33.3020   -19.4400    22.0870 c3         1 RF6      -0.086100
      3 N1          32.2500   -22.4330    22.1000 nb         1 RF6      -0.255000
      4 C2          29.5610   -22.0440    21.7470 ca         1 RF6       0.167300
      5 C4          31.6850   -21.3070    22.5380 ca         1 RF6       0.167300
      6 N           30.1230   -23.1760    21.3050 nb         1 RF6      -0.255000
      7 C           27.4220   -20.6340    22.0080 c3         1 RF6      -0.086100
      8 C3          31.4390   -23.3250    21.5060 ca         1 RF6       0.371900
      9 C5          30.3200   -21.0700    22.3850 ca         1 RF6      -0.275000
     10 H1          33.3350   -20.7950    23.7700 hc         1 RF6       0.060950
     11 H3          33.9660   -18.7110    22.5540 hc         1 RF6       0.037700
     12 H4          33.8990   -20.0760    21.4300 hc         1 RF6       0.037700
     13 H6          31.4780   -25.0690    20.4610 hn         1 RF6       0.488000
     14 H7          33.0050   -24.5300    21.0300 hn         1 RF6       0.488000
     15 H8          26.3570   -20.6480    21.7770 hc         1 RF6       0.037700
     16 H9          27.5280   -20.5310    23.0900 hc         1 RF6       0.037700
     17 H11         27.9240   -22.0120    20.4220 hc         1 RF6       0.060950
     18 H13         29.8800   -20.1540    22.7480 ha         1 RF6       0.132000
     19 H2          32.0100   -19.6280    23.8090 hc         1 RF6       0.060950
     20 H5          32.5780   -18.9000    21.4730 hc         1 RF6       0.037700
     21 H10         27.8540   -19.7470    21.5410 hc         1 RF6       0.037700
     22 H12         27.5990   -22.7870    21.9460 hc         1 RF6       0.060950
     23 C1          28.0810   -21.9110    21.5000 c3         1 RF6      -0.136200
     24 N2          32.0020   -24.4990    21.1040 nv         1 RF6      -1.055900
@<TRIPOS>BOND
     1     1     2 1   
     2     1     5 1   
     3     1    10 1   
     4     1    19 1   
     5     2    11 1   
     6     2    12 1   
     7     2    20 1   
     8     3     5 ar  
     9     3     8 ar  
    10     4     6 ar  
    11     4     9 ar  
    12     4    23 1   
    13     5     9 ar  
    14     6     8 ar  
    15     7    15 1   
    16     7    16 1   
    17     7    21 1   
    18     7    23 1   
    19     8    24 1   
    20     9    18 1   
    21    13    24 1   
    22    14    24 1   
    23    17    23 1   
    24    22    23 1   
@<TRIPOS>SUBSTRUCTURE
     1 RF6         1 TEMP              0 ****  ****    0 ROOT
