@<TRIPOS>MOLECULE
RF7
   32    32     1     0     0
SMALL
No Charge or Current Charge


@<TRIPOS>ATOM
      1 O6          -2.2380    -1.4380     1.2240 o          1 RF7      -0.930167
      2 P4          -1.0020    -1.9670     0.5830 p5         1 RF7       1.291500
      3 O5          -0.5230    -3.1700     1.3230 o          1 RF7      -0.930167
      4 O7          -1.2550    -2.3160    -0.8440 o          1 RF7      -0.930167
      5 C1           0.3300    -0.6880     0.6640 c3         1 RF7      -0.383400
      6 C2           0.2490     0.4350    -0.4090 c3         1 RF7       0.026600
      7 C3           1.5070     1.3480    -0.4080 c3         1 RF7      -0.154400
      8 C8           2.7860     0.5880    -0.8140 c          1 RF7       0.638100
      9 N9           3.7220     0.2050     0.1910 n          1 RF7      -0.292300
     10 O10          3.5010     0.4960     1.5900 oh         1 RF7      -0.455100
     11 C11          4.9660    -0.5260    -0.1220 c3         1 RF7       0.100300
     12 O12          3.0020     0.3300    -1.9950 o          1 RF7      -0.625100
     13 C13         -1.0170     1.2920    -0.2760 ca         1 RF7       0.015700
     14 C15         -1.2670     2.0380     0.8960 ca         1 RF7      -0.077000
     15 C16         -2.4110     2.8500     0.9950 ca         1 RF7      -0.127500
     16 C18         -3.3150     2.9260    -0.0760 ca         1 RF7      -0.145000
     17 C17         -3.0740     2.1910    -1.2480 ca         1 RF7      -0.127500
     18 C14         -1.9300     1.3790    -1.3480 ca         1 RF7      -0.077000
     19 H3           0.3380    -0.2550     1.6710 hc         1 RF7       0.005700
     20 H4           1.2700    -1.2370     0.5460 hc         1 RF7       0.005700
     21 H5           0.2270    -0.0620    -1.3890 hc         1 RF7       0.087700
     22 H6           1.3410     2.1460    -1.1420 hc         1 RF7       0.040700
     23 H7           1.6110     1.7930     0.5860 hc         1 RF7       0.040700
     24 H8           2.9570    -0.2540     1.9280 ho         1 RF7       0.465000
     25 H9           4.7210    -1.4940    -0.5780 h1         1 RF7       0.033367
     26 H10          5.5720     0.0610    -0.8240 h1         1 RF7       0.033367
     27 H11          5.5480    -0.6990     0.7930 h1         1 RF7       0.033367
     28 H12         -0.5730     1.9920     1.7310 ha         1 RF7       0.109000
     29 H13         -2.5940     3.4200     1.9030 ha         1 RF7       0.075000
     30 H14         -4.1990     3.5550     0.0000 ha         1 RF7       0.069000
     31 H15         -3.7720     2.2500    -2.0790 ha         1 RF7       0.075000
     32 H16         -1.7540     0.8190    -2.2630 ha         1 RF7       0.109000
@<TRIPOS>BOND
     1     1     2 1   
     2     2     3 1   
     3     2     4 1   
     4     2     5 1   
     5     5     6 1   
     6     5    19 1   
     7     5    20 1   
     8     6     7 1   
     9     6    13 1   
    10     6    21 1   
    11     7     8 1   
    12     7    22 1   
    13     7    23 1   
    14     8     9 1   
    15     8    12 2   
    16     9    10 1   
    17     9    11 1   
    18    10    24 1   
    19    11    25 1   
    20    11    26 1   
    21    11    27 1   
    22    13    14 ar  
    23    13    18 ar  
    24    14    15 ar  
    25    14    28 1   
    26    15    16 ar  
    27    15    29 1   
    28    16    17 ar  
    29    16    30 1   
    30    17    18 ar  
    31    17    31 1   
    32    18    32 1   
@<TRIPOS>SUBSTRUCTURE
     1 RF7         1 TEMP              0 ****  ****    0 ROOT
