@<TRIPOS>MOLECULE
RF7
   32    32     1     0     0
SMALL
bcc


@<TRIPOS>ATOM
      1 O6          -2.2540    -1.3090     1.1000 o          1 RF7      -0.930167
      2 P4          -0.9520    -2.0070     0.6980 p5         1 RF7       1.133700
      3 O5          -0.4560    -3.0220     1.7410 o          1 RF7      -0.930167
      4 O7          -0.9580    -2.5580    -0.7360 o          1 RF7      -0.930167
      5 C1           0.3770    -0.6970     0.6900 c3         1 RF7      -0.225600
      6 C2           0.2250     0.3530    -0.4100 c3         1 RF7       0.026600
      7 C3           1.4480     1.2930    -0.5240 c3         1 RF7      -0.154400
      8 C8           2.6930     0.5220    -0.8930 c          1 RF7       0.705100
      9 N9           3.5950     0.2630     0.0800 n          1 RF7      -0.359300
     10 O10          3.3980     0.7440     1.3470 oh         1 RF7      -0.416100
     11 C11          4.8220    -0.4750    -0.0940 c3         1 RF7       0.100300
     12 O12          2.8710     0.1180    -2.0360 o          1 RF7      -0.625100
     13 C13         -1.0050     1.2150    -0.2580 ca         1 RF7       0.015700
     14 C15         -1.2670     1.8990     0.9270 ca         1 RF7      -0.095000
     15 C16         -2.3520     2.7550     1.0350 ca         1 RF7      -0.145500
     16 C18         -3.2060     2.9420    -0.0460 ca         1 RF7      -0.163000
     17 C17         -2.9560     2.2690    -1.2330 ca         1 RF7      -0.145500
     18 C14         -1.8620     1.4170    -1.3330 ca         1 RF7      -0.095000
     19 H3           0.4290    -0.2130     1.6720 hc         1 RF7       0.005700
     20 H4           1.3330    -1.2180     0.5560 hc         1 RF7       0.005700
     21 H5           0.1350    -0.1850    -1.3570 hc         1 RF7       0.087700
     22 H6           1.2770     2.0050    -1.3340 hc         1 RF7       0.040700
     23 H7           1.5610     1.8700     0.3930 hc         1 RF7       0.040700
     24 H8           2.8950     0.0670     1.8210 ho         1 RF7       0.426000
     25 H9           4.9090    -0.7900    -1.1280 h1         1 RF7       0.033367
     26 H10          5.6810     0.1470     0.1580 h1         1 RF7       0.033367
     27 H11          4.8290    -1.3610     0.5420 h1         1 RF7       0.033367
     28 H12         -0.6130     1.7660     1.7810 ha         1 RF7       0.127000
     29 H13         -2.5340     3.2790     1.9660 ha         1 RF7       0.093000
     30 H14         -4.0550     3.6100     0.0370 ha         1 RF7       0.087000
     31 H15         -3.6100     2.4080    -2.0850 ha         1 RF7       0.093000
     32 H16         -1.6710     0.9000    -2.2670 ha         1 RF7       0.127000
@<TRIPOS>BOND
     1     1     2 1   
     2     2     3 1   
     3     2     4 1   
     4     2     5 1   
     5     5     6 1   
     6     5    19 1   
     7     5    20 1   
     8     6     7 1   
     9     6    13 1   
    10     6    21 1   
    11     7     8 1   
    12     7    22 1   
    13     7    23 1   
    14     8     9 1   
    15     8    12 2   
    16     9    10 1   
    17     9    11 1   
    18    10    24 1   
    19    11    25 1   
    20    11    26 1   
    21    11    27 1   
    22    13    14 ar  
    23    13    18 ar  
    24    14    15 ar  
    25    14    28 1   
    26    15    16 ar  
    27    15    29 1   
    28    16    17 ar  
    29    16    30 1   
    30    17    18 ar  
    31    17    31 1   
    32    18    32 1   
@<TRIPOS>SUBSTRUCTURE
     1 RF7         1 TEMP              0 ****  ****    0 ROOT
