@<TRIPOS>MOLECULE
RF8
   48    47     1     0     0
SMALL
abcg2


@<TRIPOS>ATOM
      1 O01        -16.0260   -14.2750     5.1070 o          1 RF8      -0.745250
      2 C02        -15.7780   -13.6070     6.1320 c          1 RF8       0.715000
      3 O03        -16.6130   -13.1650     6.9490 o          1 RF8      -0.745250
      4 C04        -14.2880   -13.3410     6.4270 c3         1 RF8      -0.203900
      5 C05        -13.9860   -12.1230     7.2870 c3         1 RF8      -0.057900
      6 C06        -12.4960   -11.9340     7.5410 c3         1 RF8      -0.074900
      7 C07        -12.1740   -10.7150     8.3960 c3         1 RF8      -0.068900
      8 C08        -10.6780   -10.5310     8.6190 c3         1 RF8      -0.066900
      9 C09        -10.3120    -9.4070     9.5830 c3         1 RF8      -0.077900
     10 C10        -10.7280    -8.0150     9.1230 c3         1 RF8      -0.073400
     11 C11        -10.2120    -6.9120    10.0400 c3         1 RF8      -0.073400
     12 C12        -10.6360    -5.5180     9.6000 c3         1 RF8      -0.077900
     13 C13        -10.0290    -4.4150    10.4630 c3         1 RF8      -0.066900
     14 C14        -10.3200    -2.9860     9.9940 c3         1 RF8      -0.068900
     15 C15         -9.3530    -2.3810     8.9730 c3         1 RF8      -0.074900
     16 C16         -9.2810    -3.0740     7.6080 c3         1 RF8      -0.057900
     17 C17         -8.2100    -4.1590     7.5020 c3         1 RF8      -0.203900
     18 C18         -8.3100    -5.0340     6.2370 c          1 RF8       0.715000
     19 O19         -9.4470    -5.4680     5.9450 o          1 RF8      -0.745250
     20 O20         -7.2530    -5.2670     5.6170 o          1 RF8      -0.745250
     21 H041       -13.8850   -14.2340     6.9240 hc         1 RF8       0.013450
     22 H042       -13.7420   -13.2710     5.4810 hc         1 RF8       0.013450
     23 H051       -14.3840   -11.2230     6.8050 hc         1 RF8       0.037450
     24 H052       -14.5080   -12.2070     8.2430 hc         1 RF8       0.037450
     25 H061       -12.0940   -12.8310     8.0260 hc         1 RF8       0.016950
     26 H062       -11.9700   -11.8510     6.5830 hc         1 RF8       0.016950
     27 H071       -12.5970    -9.8240     7.9210 hc         1 RF8       0.025700
     28 H072       -12.6780   -10.8090     9.3660 hc         1 RF8       0.025700
     29 H081       -10.2610   -11.4690     9.0010 hc         1 RF8       0.026700
     30 H082       -10.1890   -10.3560     7.6550 hc         1 RF8       0.026700
     31 H091       -10.7550    -9.6110    10.5640 hc         1 RF8       0.041450
     32 H092        -9.2270    -9.4160     9.7360 hc         1 RF8       0.041450
     33 H102       -11.8190    -7.9490     9.0600 hc         1 RF8       0.038200
     34 H101       -10.3550    -7.8390     8.1070 hc         1 RF8       0.038200
     35 H111       -10.5530    -7.0950    11.0650 hc         1 RF8       0.038200
     36 H112        -9.1170    -6.9620    10.0720 hc         1 RF8       0.038200
     37 H122       -11.7280    -5.4390     9.6380 hc         1 RF8       0.041450
     38 H121       -10.3640    -5.3840     8.5510 hc         1 RF8       0.041450
     39 H132        -8.9450    -4.5590    10.5370 hc         1 RF8       0.026700
     40 H131       -10.4100    -4.5400    11.4810 hc         1 RF8       0.026700
     41 H142       -10.3190    -2.3280    10.8680 hc         1 RF8       0.025700
     42 H141       -11.3400    -2.9400     9.5940 hc         1 RF8       0.025700
     43 H152        -8.3510    -2.3340     9.4140 hc         1 RF8       0.016950
     44 H151        -9.6550    -1.3400     8.8250 hc         1 RF8       0.016950
     45 H162        -9.0780    -2.3230     6.8380 hc         1 RF8       0.037450
     46 H161       -10.2600    -3.4910     7.3600 hc         1 RF8       0.037450
     47 H172        -8.2750    -4.8250     8.3690 hc         1 RF8       0.013450
     48 H171        -7.2230    -3.6920     7.5620 hc         1 RF8       0.013450
@<TRIPOS>BOND
     1     1     2 1   
     2     2     3 1   
     3     2     4 1   
     4     4     5 1   
     5     4    21 1   
     6     4    22 1   
     7     5     6 1   
     8     5    23 1   
     9     5    24 1   
    10     6     7 1   
    11     6    25 1   
    12     6    26 1   
    13     7     8 1   
    14     7    27 1   
    15     7    28 1   
    16     8     9 1   
    17     8    29 1   
    18     8    30 1   
    19     9    10 1   
    20     9    31 1   
    21     9    32 1   
    22    10    11 1   
    23    10    33 1   
    24    10    34 1   
    25    11    12 1   
    26    11    35 1   
    27    11    36 1   
    28    12    13 1   
    29    12    37 1   
    30    12    38 1   
    31    13    14 1   
    32    13    39 1   
    33    13    40 1   
    34    14    15 1   
    35    14    41 1   
    36    14    42 1   
    37    15    16 1   
    38    15    43 1   
    39    15    44 1   
    40    16    17 1   
    41    16    45 1   
    42    16    46 1   
    43    17    18 1   
    44    17    47 1   
    45    17    48 1   
    46    18    19 1   
    47    18    20 1   
@<TRIPOS>SUBSTRUCTURE
     1 RF8         1 TEMP              0 ****  ****    0 ROOT
