@<TRIPOS>MOLECULE
RF8
   48    47     1     0     0
SMALL
No Charge or Current Charge


@<TRIPOS>ATOM
      1 O01        -16.6260   -13.1550     5.5760 o          1 RF8      -0.745250
      2 C02        -16.0390   -13.7340     6.4780 c          1 RF8       0.715000
      3 O03        -16.6040   -14.3910     7.3380 o          1 RF8      -0.745250
      4 C04        -14.5090   -13.5790     6.5670 c3         1 RF8      -0.203900
      5 C05        -14.1450   -12.3450     7.4290 c3         1 RF8      -0.057900
      6 C06        -12.6210   -12.1270     7.5670 c3         1 RF8      -0.074900
      7 C07        -12.2610   -10.8960     8.4280 c3         1 RF8      -0.068900
      8 C08        -10.7360   -10.6810     8.5650 c3         1 RF8      -0.066900
      9 C09        -10.3330    -9.5110     9.4940 c3         1 RF8      -0.077900
     10 C10        -10.7430    -8.1110     8.9780 c3         1 RF8      -0.073400
     11 C11        -10.2550    -6.9670     9.8930 c3         1 RF8      -0.073400
     12 C12        -10.6630    -5.5680     9.3820 c3         1 RF8      -0.077900
     13 C13        -10.1880    -4.4250    10.3120 c3         1 RF8      -0.066900
     14 C14        -10.5260    -3.0010     9.8020 c3         1 RF8      -0.068900
     15 C15         -9.4200    -2.2670     8.9960 c3         1 RF8      -0.074900
     16 C16         -9.0040    -2.8910     7.6390 c3         1 RF8      -0.057900
     17 C17         -7.7900    -3.8570     7.7100 c3         1 RF8      -0.203900
     18 C18         -7.4370    -4.3670     6.3000 c          1 RF8       0.715000
     19 O19         -7.9810    -5.3840     5.8980 o          1 RF8      -0.745250
     20 O20         -6.6630    -3.7040     5.6250 o          1 RF8      -0.745250
     21 H041       -14.0660   -14.4430     7.0780 hc         1 RF8       0.013450
     22 H042       -14.0830   -13.3880     5.5740 hc         1 RF8       0.013450
     23 H051       -14.5980   -11.4500     6.9850 hc         1 RF8       0.037450
     24 H052       -14.5830   -12.4610     8.4280 hc         1 RF8       0.037450
     25 H061       -12.1690   -13.0220     8.0120 hc         1 RF8       0.016950
     26 H062       -12.1820   -12.0080     6.5690 hc         1 RF8       0.016950
     27 H071       -12.7190   -10.0070     7.9790 hc         1 RF8       0.025700
     28 H072       -12.6990   -11.0150     9.4270 hc         1 RF8       0.025700
     29 H081       -10.2850   -11.6010     8.9570 hc         1 RF8       0.026700
     30 H082       -10.3000   -10.5190     7.5710 hc         1 RF8       0.026700
     31 H091       -10.7670    -9.6740    10.4880 hc         1 RF8       0.041450
     32 H092        -9.2440    -9.5330     9.6220 hc         1 RF8       0.041450
     33 H102       -11.8350    -8.0540     8.8960 hc         1 RF8       0.038200
     34 H101       -10.3360    -7.9650     7.9700 hc         1 RF8       0.038200
     35 H111       -10.6610    -7.1140    10.9020 hc         1 RF8       0.038200
     36 H112        -9.1620    -7.0130     9.9770 hc         1 RF8       0.038200
     37 H122       -11.7550    -5.5230     9.2940 hc         1 RF8       0.041450
     38 H121       -10.2630    -5.4260     8.3730 hc         1 RF8       0.041450
     39 H132        -9.1100    -4.5050    10.4970 hc         1 RF8       0.026700
     40 H131       -10.6740    -4.5630    11.2870 hc         1 RF8       0.026700
     41 H142       -10.7520    -2.3800    10.6780 hc         1 RF8       0.025700
     42 H141       -11.4510    -3.0290     9.2130 hc         1 RF8       0.025700
     43 H152        -8.5350    -2.1350     9.6300 hc         1 RF8       0.016950
     44 H151        -9.7920    -1.2540     8.7940 hc         1 RF8       0.016950
     45 H162        -8.7390    -2.0720     6.9590 hc         1 RF8       0.037450
     46 H161        -9.8650    -3.3950     7.1820 hc         1 RF8       0.037450
     47 H172        -8.0810    -4.6930     8.3530 hc         1 RF8       0.013450
     48 H171        -6.9620    -3.2630     8.1160 hc         1 RF8       0.013450
@<TRIPOS>BOND
     1     1     2 1   
     2     2     3 1   
     3     2     4 1   
     4     4     5 1   
     5     4    21 1   
     6     4    22 1   
     7     5     6 1   
     8     5    23 1   
     9     5    24 1   
    10     6     7 1   
    11     6    25 1   
    12     6    26 1   
    13     7     8 1   
    14     7    27 1   
    15     7    28 1   
    16     8     9 1   
    17     8    29 1   
    18     8    30 1   
    19     9    10 1   
    20     9    31 1   
    21     9    32 1   
    22    10    11 1   
    23    10    33 1   
    24    10    34 1   
    25    11    12 1   
    26    11    35 1   
    27    11    36 1   
    28    12    13 1   
    29    12    37 1   
    30    12    38 1   
    31    13    14 1   
    32    13    39 1   
    33    13    40 1   
    34    14    15 1   
    35    14    41 1   
    36    14    42 1   
    37    15    16 1   
    38    15    43 1   
    39    15    44 1   
    40    16    17 1   
    41    16    45 1   
    42    16    46 1   
    43    17    18 1   
    44    17    47 1   
    45    17    48 1   
    46    18    19 1   
    47    18    20 1   
@<TRIPOS>SUBSTRUCTURE
     1 RF8         1 TEMP              0 ****  ****    0 ROOT
