@<TRIPOS>MOLECULE
RF9
   31    30     1     0     0
SMALL
No Charge or Current Charge


@<TRIPOS>ATOM
      1 N            3.9600    -0.4280    -1.8000 n8         1 RF9      -0.882800
      2 CA           3.8460     0.2290    -0.4430 c3         1 RF9       0.014500
      3 C            5.0790     0.0460     0.5480 c          1 RF9       0.901600
      4 CB           2.5250    -0.1870     0.2620 c3         1 RF9      -0.049400
      5 CG           1.2360     0.2750    -0.4620 c3         1 RF9      -0.072400
      6 CD          -0.0550    -0.1020     0.2990 c3         1 RF9      -0.080400
      7 CE          -1.3350     0.3620    -0.4260 c3         1 RF9       0.170800
      8 NZ          -2.5290    -0.0280     0.3470 n7         1 RF9      -0.818200
      9 O1           5.5090    -1.0850     0.7560 o          1 RF9      -0.850300
     10 C1          -4.1100     1.8040    -0.3550 c3         1 RF9      -0.049100
     11 CX1         -3.8710     0.2700    -0.2860 c3         1 RF9       0.036500
     12 CX2         -5.1000    -0.5040     0.3790 c          1 RF9       0.925600
     13 O3          -5.1710    -1.7210     0.2180 o          1 RF9      -0.846800
     14 O2          -5.9370     0.1080     1.0390 o          1 RF9      -0.846800
     15 OXT          5.6400     1.0470     0.9810 o          1 RF9      -0.850300
     16 H1           4.8060    -0.0870    -2.2690 hn         1 RF9       0.318800
     17 H2           4.1380    -1.4290    -1.6640 hn         1 RF9       0.318800
     18 H4           3.7770     1.3090    -0.6330 h1         1 RF9       0.032700
     19 H5           2.5050    -1.2770     0.3860 hc         1 RF9       0.036200
     20 H6           2.5230     0.2410     1.2720 hc         1 RF9       0.036200
     21 H7           1.2680     1.3640    -0.5940 hc         1 RF9       0.029700
     22 H8           1.1980    -0.1680    -1.4650 hc         1 RF9       0.029700
     23 H9          -0.0880    -1.1910     0.4310 hc         1 RF9       0.035700
     24 H10         -0.0260     0.3450     1.3000 hc         1 RF9       0.035700
     25 H11         -1.2940     1.4510    -0.5530 h1         1 RF9       0.004200
     26 H12         -1.3660    -0.0960    -1.4240 h1         1 RF9       0.004200
     27 H13         -2.4800    -1.0450     0.4850 hn         1 RF9       0.383800
     28 H15         -4.0970     2.2510     0.6470 hc         1 RF9       0.011367
     29 H16         -3.3450     2.3010    -0.9630 hc         1 RF9       0.011367
     30 H17         -5.0810     2.0190    -0.8160 hc         1 RF9       0.011367
     31 H18         -3.8390    -0.0870    -1.3250 h1         1 RF9      -0.001300
@<TRIPOS>BOND
     1     1     2 1   
     2     1    16 1   
     3     1    17 1   
     4     2     3 1   
     5     2     4 1   
     6     2    18 1   
     7     3     9 1   
     8     3    15 1   
     9     4     5 1   
    10     4    19 1   
    11     4    20 1   
    12     5     6 1   
    13     5    21 1   
    14     5    22 1   
    15     6     7 1   
    16     6    23 1   
    17     6    24 1   
    18     7     8 1   
    19     7    25 1   
    20     7    26 1   
    21     8    11 1   
    22     8    27 1   
    23    10    11 1   
    24    10    28 1   
    25    10    29 1   
    26    10    30 1   
    27    11    12 1   
    28    11    31 1   
    29    12    13 1   
    30    12    14 1   
@<TRIPOS>SUBSTRUCTURE
     1 RF9         1 TEMP              0 ****  ****    0 ROOT
