@<TRIPOS>MOLECULE
RF9
   31    30     1     0     0
SMALL
bcc


@<TRIPOS>ATOM
      1 N            3.8150    -0.6300    -1.7170 n8         1 RF9      -0.882800
      2 CA           3.7800     0.1910    -0.5150 c3         1 RF9       0.014500
      3 C            4.9950     0.0240     0.4330 c          1 RF9       0.901600
      4 CB           2.4930    -0.0690     0.2720 c3         1 RF9      -0.049400
      5 CG           1.2170     0.1960    -0.5150 c3         1 RF9      -0.072400
      6 CD          -0.0440    -0.0170     0.3120 c3         1 RF9      -0.080400
      7 CE          -1.3180     0.3030    -0.4550 c3         1 RF9       0.170800
      8 NZ          -2.4970     0.0500     0.3450 n7         1 RF9      -0.818200
      9 O1           5.7390    -0.9600     0.2510 o          1 RF9      -0.850300
     10 C1          -4.1130     1.8470    -0.0450 c3         1 RF9      -0.049100
     11 CX1         -3.7470     0.3930    -0.3110 c3         1 RF9       0.036500
     12 CX2         -4.8800    -0.5760     0.1070 c          1 RF9       0.925600
     13 O3          -4.5400    -1.6620     0.6230 o          1 RF9      -0.846800
     14 O2          -6.0450    -0.2110    -0.1410 o          1 RF9      -0.846800
     15 OXT          5.1120     0.8850     1.3300 o          1 RF9      -0.850300
     16 H1           4.5880    -0.3220    -2.2950 hn         1 RF9       0.318800
     17 H2           4.0720    -1.5710    -1.4400 hn         1 RF9       0.318800
     18 H4           3.7570     1.2390    -0.8370 h1         1 RF9       0.032700
     19 H5           2.4910    -1.1070     0.6290 hc         1 RF9       0.036200
     20 H6           2.5040     0.5600     1.1650 hc         1 RF9       0.036200
     21 H7           1.2350     1.2250    -0.8920 hc         1 RF9       0.029700
     22 H8           1.1950    -0.4490    -1.3970 hc         1 RF9       0.029700
     23 H9          -0.0810    -1.0570     0.6570 hc         1 RF9       0.035700
     24 H10         -0.0100     0.6050     1.2120 hc         1 RF9       0.035700
     25 H11         -1.3000     1.3600    -0.7390 h1         1 RF9       0.004200
     26 H12         -1.3250    -0.2620    -1.4040 h1         1 RF9       0.004200
     27 H13         -2.5450    -0.9370     0.5730 hn         1 RF9       0.383800
     28 H15         -4.3120     2.0090     1.0160 hc         1 RF9       0.011367
     29 H16         -3.3000     2.5170    -0.3340 hc         1 RF9       0.011367
     30 H17         -4.9970     2.1440    -0.6050 hc         1 RF9       0.011367
     31 H18         -3.6540     0.2670    -1.4070 h1         1 RF9      -0.001300
@<TRIPOS>BOND
     1     1     2 1   
     2     1    16 1   
     3     1    17 1   
     4     2     3 1   
     5     2     4 1   
     6     2    18 1   
     7     3     9 1   
     8     3    15 1   
     9     4     5 1   
    10     4    19 1   
    11     4    20 1   
    12     5     6 1   
    13     5    21 1   
    14     5    22 1   
    15     6     7 1   
    16     6    23 1   
    17     6    24 1   
    18     7     8 1   
    19     7    25 1   
    20     7    26 1   
    21     8    11 1   
    22     8    27 1   
    23    10    11 1   
    24    10    28 1   
    25    10    29 1   
    26    10    30 1   
    27    11    12 1   
    28    11    31 1   
    29    12    13 1   
    30    12    14 1   
@<TRIPOS>SUBSTRUCTURE
     1 RF9         1 TEMP              0 ****  ****    0 ROOT
