@<TRIPOS>MOLECULE
RFE
   48    49     1     0     0
SMALL
abcg2


@<TRIPOS>ATOM
      1 C03         -1.8640   -46.8510   130.3310 c3         1 RFE      -0.182400
      2 C05         -2.7480   -47.3780   132.4930 c3         1 RFE       0.153300
      3 C06         -2.0100   -48.6800   132.7660 c3         1 RFE      -0.113100
      4 C07         -4.1100   -47.3020   133.1770 c3         1 RFE       0.090600
      5 C09         -5.3350   -49.5000   133.0710 ca         1 RFE       0.087500
      6 C11         -5.3220   -51.3540   134.2510 ca         1 RFE       0.136900
      7 C13         -6.7150   -51.3190   132.4220 ca         1 RFE       0.427900
      8 C15         -6.2740   -50.0060   132.1830 ca         1 RFE      -0.072600
      9 C17         -5.8510   -48.0460   131.5250 cc         1 RFE       0.491700
     10 C19         -4.4630   -44.6660   129.5880 c3         1 RFE       0.126500
     11 C20         -5.6810   -44.9930   128.6910 c          1 RFE       0.738000
     12 C23         -4.6320   -43.2390   130.1210 c3         1 RFE      -0.080400
     13 C24         -3.6990   -42.9370   131.2860 c3         1 RFE       0.095600
     14 C26         -5.5030   -41.3410   132.7030 c3         1 RFE       0.058900
     15 N08         -5.0730   -48.2360   132.6330 na         1 RFE      -0.268300
     16 N10         -4.8290   -50.1350   134.1280 nb         1 RFE      -0.218000
     17 N12         -6.2110   -51.9710   133.4760 nb         1 RFE      -0.330000
     18 N16         -6.5860   -49.0790   131.2240 nd         1 RFE      -0.564100
     19 N18         -3.1890   -44.7900   128.9020 n7         1 RFE      -0.946500
     20 O04         -2.9860   -47.1690   131.1250 os         1 RFE      -0.406000
     21 O22         -5.6750   -44.5720   127.5220 o          1 RFE      -0.741500
     22 P02         -2.4240   -46.2860   128.6550 p5         1 RFE       1.373300
     23 S25         -3.8620   -41.2560   131.9510 ss         1 RFE      -0.534000
     24 H1          -1.1990   -47.7180   130.2050 h1         1 RFE       0.007200
     25 H2          -1.2590   -46.0620   130.8030 h1         1 RFE       0.007200
     26 H3          -2.1540   -46.5490   132.9090 h1         1 RFE       0.011700
     27 H4          -1.9050   -48.8420   133.8390 hc         1 RFE       0.033033
     28 H5          -2.5360   -49.5360   132.3430 hc         1 RFE       0.033033
     29 H6          -1.0060   -48.6580   132.3400 hc         1 RFE       0.033033
     30 H7          -4.0040   -47.4990   134.2440 h1         1 RFE       0.056700
     31 H8          -4.5190   -46.2960   133.0680 h1         1 RFE       0.056700
     32 H9          -4.9570   -51.9340   135.0920 h5         1 RFE       0.016100
     33 H10         -5.8620   -47.1070   130.9860 h5         1 RFE       0.146800
     34 H11         -4.5070   -45.3290   130.4580 h1         1 RFE      -0.002300
     35 H12         -4.4680   -42.5200   129.3140 hc         1 RFE       0.046700
     36 H13         -5.6660   -43.1140   130.4540 hc         1 RFE       0.046700
     37 H14         -3.8570   -43.6520   132.0980 h1         1 RFE       0.056700
     38 H15         -2.6510   -43.0190   130.9910 h1         1 RFE       0.056700
     39 H16         -5.6730   -40.3970   133.2190 h1         1 RFE       0.048033
     40 H17         -6.2880   -41.4710   131.9600 h1         1 RFE       0.048033
     41 H18         -5.5570   -42.1490   133.4320 h1         1 RFE       0.048033
     42 H19         -7.8480   -52.8940   131.8020 hn         1 RFE       0.494000
     43 H20         -7.9440   -51.4940   130.8010 hn         1 RFE       0.494000
     44 H21         -2.5460   -44.0300   129.0720 hn         1 RFE       0.402000
     45 N14         -7.6220   -51.9260   131.6490 nv         1 RFE      -1.080900
     46 O01         -3.4520   -47.2750   128.1640 o          1 RFE      -0.821000
     47 O27         -1.1600   -46.0120   127.8770 o          1 RFE      -0.821000
     48 O21         -6.6150   -45.6090   129.2570 o          1 RFE      -0.741500
@<TRIPOS>BOND
     1     1    20 1   
     2     1    22 1   
     3     1    24 1   
     4     1    25 1   
     5     2     3 1   
     6     2     4 1   
     7     2    20 1   
     8     2    26 1   
     9     3    27 1   
    10     3    28 1   
    11     3    29 1   
    12     4    15 1   
    13     4    30 1   
    14     4    31 1   
    15     5     8 ar  
    16     5    15 1   
    17     5    16 ar  
    18     6    16 ar  
    19     6    17 ar  
    20     6    32 1   
    21     7     8 ar  
    22     7    17 ar  
    23     7    45 1   
    24     8    18 1   
    25     9    15 1   
    26     9    18 2   
    27     9    33 1   
    28    10    11 1   
    29    10    12 1   
    30    10    19 1   
    31    10    34 1   
    32    11    21 1   
    33    11    48 1   
    34    12    13 1   
    35    12    35 1   
    36    12    36 1   
    37    13    23 1   
    38    13    37 1   
    39    13    38 1   
    40    14    23 1   
    41    14    39 1   
    42    14    40 1   
    43    14    41 1   
    44    19    22 1   
    45    19    44 1   
    46    22    46 1   
    47    22    47 1   
    48    42    45 1   
    49    43    45 1   
@<TRIPOS>SUBSTRUCTURE
     1 RFE         1 TEMP              0 ****  ****    0 ROOT
