@<TRIPOS>MOLECULE
RFE
   48    49     1     0     0
SMALL
No Charge or Current Charge


@<TRIPOS>ATOM
      1 C03         -2.1410   -46.6660   130.3360 c3         1 RFE      -0.182400
      2 C05         -3.1130   -47.4700   132.4560 c3         1 RFE       0.153300
      3 C06         -2.1910   -48.7070   132.5860 c3         1 RFE      -0.113100
      4 C07         -4.5180   -47.6910   133.0730 c3         1 RFE       0.090600
      5 C09         -5.5660   -49.9640   133.1260 ca         1 RFE       0.087500
      6 C11         -5.7410   -51.6470   134.6660 ca         1 RFE       0.136900
      7 C13         -6.6890   -52.0080   132.6130 ca         1 RFE       0.427900
      8 C15         -6.2560   -50.7240   132.2140 ca         1 RFE      -0.072600
      9 C17         -5.7980   -48.8850   131.1700 cc         1 RFE       0.491700
     10 C19         -4.3230   -44.2690   129.7630 c3         1 RFE       0.126500
     11 C20         -5.6770   -44.8340   129.1380 c          1 RFE       0.738000
     12 C23         -4.4500   -42.7500   130.0470 c3         1 RFE      -0.080400
     13 C24         -3.3540   -42.1960   130.9830 c3         1 RFE       0.095600
     14 C26         -4.9830   -40.5000   132.5950 c3         1 RFE       0.058900
     15 N08         -5.2840   -48.8010   132.4680 na         1 RFE      -0.268300
     16 N10         -5.2910   -50.4040   134.3710 nb         1 RFE      -0.218000
     17 N12         -6.4290   -52.4770   133.8440 nb         1 RFE      -0.330000
     18 N16         -6.4150   -50.0730   130.9820 nd         1 RFE      -0.564100
     19 N18         -3.0770   -44.5230   128.9620 n7         1 RFE      -0.946500
     20 O04         -3.3020   -47.1510   131.0600 os         1 RFE      -0.406000
     21 O22         -6.1060   -44.3420   128.0970 o          1 RFE      -0.741500
     22 P02         -2.5160   -46.0360   128.6060 p5         1 RFE       1.373300
     23 S25         -3.6230   -40.3950   131.3400 ss         1 RFE      -0.534000
     24 H1          -1.4010   -47.4670   130.2190 h1         1 RFE       0.007200
     25 H2          -1.6640   -45.8440   130.8840 h1         1 RFE       0.007200
     26 H3          -2.6460   -46.6250   132.9780 h1         1 RFE       0.011700
     27 H4          -2.1710   -49.0580   133.6250 hc         1 RFE       0.033033
     28 H5          -2.5440   -49.5310   131.9540 hc         1 RFE       0.033033
     29 H6          -1.1610   -48.4630   132.3000 hc         1 RFE       0.033033
     30 H7          -4.4050   -47.8720   134.1500 h1         1 RFE       0.056700
     31 H8          -5.1000   -46.7680   132.9600 h1         1 RFE       0.056700
     32 H9          -5.5270   -52.0190   135.6660 h5         1 RFE       0.016100
     33 H10         -5.6880   -48.0890   130.4430 h5         1 RFE       0.146800
     34 H11         -4.2120   -44.7540   130.7410 h1         1 RFE      -0.002300
     35 H12         -4.4440   -42.1940   129.1020 hc         1 RFE       0.046700
     36 H13         -5.4270   -42.5720   130.5110 hc         1 RFE       0.046700
     37 H14         -3.3450   -42.7560   131.9270 h1         1 RFE       0.056700
     38 H15         -2.3710   -42.3110   130.5070 h1         1 RFE       0.056700
     39 H16         -5.2270   -39.4940   132.9600 h1         1 RFE       0.048033
     40 H17         -5.8810   -40.9420   132.1450 h1         1 RFE       0.048033
     41 H18         -4.6630   -41.1200   133.4430 h1         1 RFE       0.048033
     42 H19         -7.4000   -53.8350   132.0310 hn         1 RFE       0.494000
     43 H20         -7.3930   -52.6150   130.8000 hn         1 RFE       0.494000
     44 H21         -2.2780   -44.1560   129.4670 hn         1 RFE       0.402000
     45 N14         -7.3750   -52.8480   131.7910 nv         1 RFE      -1.080900
     46 O01         -3.5740   -46.8200   127.9040 o          1 RFE      -0.821000
     47 O27         -1.2580   -45.8490   127.8290 o          1 RFE      -0.821000
     48 O21         -6.3000   -45.6810   129.7670 o          1 RFE      -0.741500
@<TRIPOS>BOND
     1     1    20 1   
     2     1    22 1   
     3     1    24 1   
     4     1    25 1   
     5     2     3 1   
     6     2     4 1   
     7     2    20 1   
     8     2    26 1   
     9     3    27 1   
    10     3    28 1   
    11     3    29 1   
    12     4    15 1   
    13     4    30 1   
    14     4    31 1   
    15     5     8 ar  
    16     5    15 1   
    17     5    16 ar  
    18     6    16 ar  
    19     6    17 ar  
    20     6    32 1   
    21     7     8 ar  
    22     7    17 ar  
    23     7    45 1   
    24     8    18 1   
    25     9    15 1   
    26     9    18 2   
    27     9    33 1   
    28    10    11 1   
    29    10    12 1   
    30    10    19 1   
    31    10    34 1   
    32    11    21 1   
    33    11    48 1   
    34    12    13 1   
    35    12    35 1   
    36    12    36 1   
    37    13    23 1   
    38    13    37 1   
    39    13    38 1   
    40    14    23 1   
    41    14    39 1   
    42    14    40 1   
    43    14    41 1   
    44    19    22 1   
    45    19    44 1   
    46    22    46 1   
    47    22    47 1   
    48    42    45 1   
    49    43    45 1   
@<TRIPOS>SUBSTRUCTURE
     1 RFE         1 TEMP              0 ****  ****    0 ROOT
