@<TRIPOS>MOLECULE
RFG
   49    52     1     0     0
SMALL
No Charge or Current Charge


@<TRIPOS>ATOM
      1 C4          -2.0870     4.4790   -26.0640 c          1 RFG       0.675700
      2 C14         -4.9620     9.7560   -22.4760 c3         1 RFG      -0.107100
      3 C5          -3.6930     4.4860   -24.1190 ca         1 RFG       0.490900
      4 C6          -4.9910     5.0990   -22.2740 ca         1 RFG       0.352000
      5 C11         -5.9160     8.0170   -20.2390 cc         1 RFG       0.363400
      6 C7          -5.3790     3.7490   -22.0940 ca         1 RFG      -0.148000
      7 C8          -4.9040     2.7520   -22.9630 ca         1 RFG      -0.059000
      8 C9          -4.0400     3.1300   -24.0000 ca         1 RFG      -0.168000
      9 C10         -5.5030     6.1440   -21.3300 cc         1 RFG       0.326500
     10 C13         -2.9440     8.3200   -21.8700 c3         1 RFG      -0.107100
     11 N1          -0.0330     6.3220   -28.3690 na         1 RFG       0.119300
     12 N2          -0.5220     7.4370   -27.7070 nc         1 RFG      -0.603800
     13 C3          -0.5100     5.0940   -27.9140 cc         1 RFG      -0.017000
     14 N3          -2.8540     5.0480   -25.0810 ns         1 RFG      -0.316900
     15 C1          -1.2980     6.8600   -26.8130 cd         1 RFG       0.536300
     16 C15         -1.9430     9.0220   -25.8980 c3         1 RFG       0.156900
     17 C16          0.8340     6.4360   -29.4760 ca         1 RFG       0.406500
     18 C17          1.7820     5.7200   -31.4810 ca         1 RFG       0.318900
     19 C18          2.6030     6.8740   -31.5260 ca         1 RFG       0.276900
     20 C19          1.6770     7.5930   -29.5430 ca         1 RFG       0.315900
     21 C2          -1.3390     5.4530   -26.8800 cd         1 RFG      -0.308600
     22 N4          -4.1500     5.4390   -23.2900 nb         1 RFG      -0.758000
     23 N5          -5.2510     7.5200   -21.3390 na         1 RFG      -0.340000
     24 N6          -6.5500     7.0390   -19.6200 nd         1 RFG      -0.361000
     25 N7          -6.2960     5.8770   -20.2960 nd         1 RFG      -0.359000
     26 N8           0.9000     5.4890   -30.4680 nb         1 RFG      -0.673000
     27 N9           2.5640     7.8270   -30.5570 nb         1 RFG      -0.618000
     28 O1          -2.0160     3.2740   -26.2570 o          1 RFG      -0.592100
     29 H1          -6.0210     9.7430   -22.7620 hc         1 RFG       0.047867
     30 H2          -4.8550    10.3470   -21.5590 hc         1 RFG       0.047867
     31 H3          -4.4050    10.2660   -23.2710 hc         1 RFG       0.047867
     32 H4          -5.9050     9.0620   -19.9520 h5         1 RFG       0.061100
     33 H5          -6.0480     3.4720   -21.2840 ha         1 RFG       0.152000
     34 H6          -5.1990     1.7120   -22.8330 ha         1 RFG       0.125000
     35 H7          -3.6620     2.3830   -24.6880 ha         1 RFG       0.159000
     36 H8          -4.5040     7.8530   -23.2760 h1         1 RFG       0.091700
     37 H9          -2.5580     7.2970   -21.7970 hc         1 RFG       0.047867
     38 H10         -2.3370     8.8590   -22.6070 hc         1 RFG       0.047867
     39 H11         -2.8140     8.8050   -20.8950 hc         1 RFG       0.047867
     40 H12         -0.2330     4.1360   -28.3410 h4         1 RFG       0.197000
     41 H13         -2.8040     6.0550   -25.0300 hn         1 RFG       0.181000
     42 H14         -2.5840     9.4350   -25.1090 h1         1 RFG       0.052367
     43 H15         -0.9160     9.3630   -25.7150 h1         1 RFG       0.052367
     44 H16         -2.2820     9.4320   -26.8590 h1         1 RFG       0.052367
     45 H17          1.8330     4.9700   -32.2690 h4         1 RFG       0.040100
     46 H18          3.2990     7.0330   -32.3480 h4         1 RFG       0.040100
     47 H19          1.6500     8.3510   -28.7620 h4         1 RFG       0.060100
     48 O2          -2.0150     7.5820   -25.9000 os         1 RFG      -0.455300
     49 C12         -4.4310     8.3170   -22.2860 c3         1 RFG       0.095300
@<TRIPOS>BOND
     1     1    14 1   
     2     1    21 1   
     3     1    28 2   
     4     2    29 1   
     5     2    30 1   
     6     2    31 1   
     7     2    49 1   
     8     3     8 ar  
     9     3    14 1   
    10     3    22 ar  
    11     4     6 ar  
    12     4     9 1   
    13     4    22 ar  
    14     5    23 1   
    15     5    24 2   
    16     5    32 1   
    17     6     7 ar  
    18     6    33 1   
    19     7     8 ar  
    20     7    34 1   
    21     8    35 1   
    22     9    23 1   
    23     9    25 2   
    24    10    37 1   
    25    10    38 1   
    26    10    39 1   
    27    10    49 1   
    28    11    12 1   
    29    11    13 1   
    30    11    17 1   
    31    12    15 2   
    32    13    21 2   
    33    13    40 1   
    34    14    41 1   
    35    15    21 1   
    36    15    48 1   
    37    16    42 1   
    38    16    43 1   
    39    16    44 1   
    40    16    48 1   
    41    17    20 ar  
    42    17    26 ar  
    43    18    19 ar  
    44    18    26 ar  
    45    18    45 1   
    46    19    27 ar  
    47    19    46 1   
    48    20    27 ar  
    49    20    47 1   
    50    23    49 1   
    51    24    25 1   
    52    36    49 1   
@<TRIPOS>SUBSTRUCTURE
     1 RFG         1 TEMP              0 ****  ****    0 ROOT
