@<TRIPOS>MOLECULE
RFG
   49    52     1     0     0
SMALL
abcg2


@<TRIPOS>ATOM
      1 C4          -2.1680     4.6570   -26.0830 c          1 RFG       0.675700
      2 C14         -5.5540     9.5390   -22.4480 c3         1 RFG      -0.107100
      3 C5          -3.6710     4.6250   -24.1060 ca         1 RFG       0.490900
      4 C6          -4.9320     5.0710   -22.2430 ca         1 RFG       0.352000
      5 C11         -5.7640     7.8090   -20.0970 cc         1 RFG       0.363400
      6 C7          -5.4200     3.7700   -22.1920 ca         1 RFG      -0.148000
      7 C8          -4.9820     2.8850   -23.1630 ca         1 RFG      -0.059000
      8 C9          -4.0960     3.2960   -24.1440 ca         1 RFG      -0.168000
      9 C10         -5.3480     6.0390   -21.2240 cc         1 RFG       0.326500
     10 C13         -3.2530     8.5810   -22.0390 c3         1 RFG      -0.107100
     11 N1           0.0380     6.3150   -28.3890 na         1 RFG       0.119300
     12 N2          -0.2010     7.3920   -27.6110 nc         1 RFG      -0.603800
     13 C3          -0.6080     5.2160   -27.9670 cc         1 RFG      -0.017000
     14 N3          -2.7950     5.2120   -25.0090 ns         1 RFG      -0.316900
     15 C1          -1.0130     6.9580   -26.6860 cd         1 RFG       0.536300
     16 C15         -1.0850     9.0840   -25.6850 c3         1 RFG       0.156900
     17 C16          0.8710     6.4310   -29.5040 ca         1 RFG       0.406500
     18 C17          1.8410     5.4360   -31.2760 ca         1 RFG       0.318900
     19 C18          2.4410     6.6370   -31.6220 ca         1 RFG       0.276900
     20 C19          1.4680     7.6470   -29.8380 ca         1 RFG       0.315900
     21 C2          -1.3180     5.5750   -26.8470 cd         1 RFG      -0.308600
     22 N4          -4.0790     5.4760   -23.1740 nb         1 RFG      -0.758000
     23 N5          -5.2550     7.3960   -21.2770 na         1 RFG      -0.340000
     24 N6          -6.1490     6.7930   -19.3760 nd         1 RFG      -0.361000
     25 N7          -5.8880     5.6800   -20.0860 nd         1 RFG      -0.359000
     26 N8           1.0550     5.3380   -30.2140 nb         1 RFG      -0.673000
     27 N9           2.2490     7.7330   -30.8990 nb         1 RFG      -0.618000
     28 O1          -2.2850     3.4890   -26.4120 o          1 RFG      -0.592100
     29 H1          -6.6070     9.3070   -22.6050 hc         1 RFG       0.047867
     30 H2          -5.4660    10.1860   -21.5740 hc         1 RFG       0.047867
     31 H3          -5.2050    10.1070   -23.3090 hc         1 RFG       0.047867
     32 H4          -5.8420     8.8440   -19.8070 h5         1 RFG       0.061100
     33 H5          -6.1180     3.4670   -21.4250 ha         1 RFG       0.152000
     34 H6          -5.3370     1.8630   -23.1630 ha         1 RFG       0.125000
     35 H7          -3.7530     2.6120   -24.9010 ha         1 RFG       0.159000
     36 H8          -4.7850     7.7200   -23.2530 h1         1 RFG       0.091700
     37 H9          -2.6610     7.6680   -21.9990 hc         1 RFG       0.047867
     38 H10         -2.8450     9.2120   -22.8300 hc         1 RFG       0.047867
     39 H11         -3.1370     9.1150   -21.0950 hc         1 RFG       0.047867
     40 H12         -0.5280     4.2710   -28.4760 h4         1 RFG       0.197000
     41 H13         -2.6230     6.1900   -24.8130 hn         1 RFG       0.181000
     42 H14         -1.6000     9.5330   -24.8410 h1         1 RFG       0.052367
     43 H15         -0.0080     9.1690   -25.5430 h1         1 RFG       0.052367
     44 H16         -1.3710     9.6000   -26.6020 h1         1 RFG       0.052367
     45 H17          1.9970     4.5410   -31.8640 h4         1 RFG       0.040100
     46 H18          3.0800     6.7090   -32.4920 h4         1 RFG       0.040100
     47 H19          1.3080     8.5390   -29.2480 h4         1 RFG       0.060100
     48 O2          -1.4930     7.7170   -25.7150 os         1 RFG      -0.455300
     49 C12         -4.7150     8.2780   -22.3240 c3         1 RFG       0.095300
@<TRIPOS>BOND
     1     1    14 1   
     2     1    21 1   
     3     1    28 2   
     4     2    29 1   
     5     2    30 1   
     6     2    31 1   
     7     2    49 1   
     8     3     8 ar  
     9     3    14 1   
    10     3    22 ar  
    11     4     6 ar  
    12     4     9 1   
    13     4    22 ar  
    14     5    23 1   
    15     5    24 2   
    16     5    32 1   
    17     6     7 ar  
    18     6    33 1   
    19     7     8 ar  
    20     7    34 1   
    21     8    35 1   
    22     9    23 1   
    23     9    25 2   
    24    10    37 1   
    25    10    38 1   
    26    10    39 1   
    27    10    49 1   
    28    11    12 1   
    29    11    13 1   
    30    11    17 1   
    31    12    15 2   
    32    13    21 2   
    33    13    40 1   
    34    14    41 1   
    35    15    21 1   
    36    15    48 1   
    37    16    42 1   
    38    16    43 1   
    39    16    44 1   
    40    16    48 1   
    41    17    20 ar  
    42    17    26 ar  
    43    18    19 ar  
    44    18    26 ar  
    45    18    45 1   
    46    19    27 ar  
    47    19    46 1   
    48    20    27 ar  
    49    20    47 1   
    50    23    49 1   
    51    24    25 1   
    52    36    49 1   
@<TRIPOS>SUBSTRUCTURE
     1 RFG         1 TEMP              0 ****  ****    0 ROOT
