@<TRIPOS>MOLECULE
RFH
  118   121     1     0     0
SMALL
No Charge or Current Charge


@<TRIPOS>ATOM
      1 O11         11.9890     6.3930     0.3190 o          1 RFH      -0.615100
      2 C15         12.7540     5.5240     0.7020 c          1 RFH       0.608300
      3 N1          13.8390     5.8820     1.4210 nt         1 RFH      -0.608000
      4 C2          -8.7440    -1.3180     0.1750 cc         1 RFH       0.074900
      5 C16         12.5640     4.0540     0.4020 ce         1 RFH      -0.190400
      6 C30         13.5490     3.0570     1.0250 c3         1 RFH      -0.052900
      7 C17         11.5090     3.6480    -0.3760 cf         1 RFH      -0.107000
      8 C18         11.1820     2.2810    -0.7790 cf         1 RFH      -0.200000
      9 C19         10.0740     1.9570    -1.4820 c2         1 RFH      -0.178200
     10 C20          9.6910     0.5530    -1.9270 c3         1 RFH      -0.066500
     11 C31          9.3830     0.5520    -3.4430 c3         1 RFH      -0.084100
     12 C21          8.5180     0.0040    -1.0600 c3         1 RFH       0.172300
     13 O10          8.8990     0.1120     0.3190 oh         1 RFH      -0.666000
     14 C22          8.0620    -1.4660    -1.3650 c3         1 RFH      -0.121700
     15 C32          9.2090    -2.5070    -1.2200 c3         1 RFH      -0.086100
     16 C23          6.7980    -1.9060    -0.5530 c3         1 RFH       0.180300
     17 O9           7.1600    -1.8860     0.8270 oh         1 RFH      -0.655000
     18 C24          5.5060    -1.0420    -0.7500 c3         1 RFH      -0.096700
     19 C33          5.1410    -0.8400    -2.2510 c3         1 RFH      -0.085100
     20 C25          4.3090    -1.6240     0.0830 c3         1 RFH       0.184300
     21 O7           3.9880    -2.9090    -0.5020 os         1 RFH      -0.472100
     22 C35          3.9870    -4.0350     0.2810 c          1 RFH       0.594100
     23 O8           4.2260    -4.0640     1.4790 o          1 RFH      -0.469000
     24 C36          3.6220    -5.2690    -0.5310 c3         1 RFH      -0.158100
     25 C26          2.9910    -0.7760     0.1070 c3         1 RFH      -0.056700
     26 C34          3.2340     0.7110     0.4960 c3         1 RFH      -0.083100
     27 C27          1.9010    -1.4400     1.0000 c3         1 RFH       0.221500
     28 O6           2.3300    -1.3640     2.3720 os         1 RFH      -0.444000
     29 C37          1.6060    -2.2050     3.2900 c3         1 RFH       0.145900
     30 C28          0.5520    -0.7610     0.8840 c2         1 RFH      -0.289200
     31 C29         -0.3650    -1.0330    -0.0520 c2         1 RFH      -0.025900
     32 O5          -1.5630    -0.3550    -0.0790 os         1 RFH      -0.334100
     33 C12         -2.2840    -0.5270    -1.3420 c5         1 RFH       0.276000
     34 O3          -2.5120    -1.9510    -1.5620 os         1 RFH      -0.336100
     35 C6          -3.8160    -2.1690    -1.1860 ca         1 RFH       0.227100
     36 C13         -1.4810     0.0750    -2.5250 c3         1 RFH      -0.110100
     37 C11         -3.6920     0.1400    -1.1930 c          1 RFH       0.597700
     38 O4          -4.0330     1.2930    -1.4290 o          1 RFH      -0.433100
     39 C5          -4.5610    -1.0360    -0.9120 ca         1 RFH      -0.263600
     40 C10         -5.9170    -1.1140    -0.4770 ca         1 RFH       0.042400
     41 C9          -6.5060    -2.4130    -0.4550 ca         1 RFH      -0.318600
     42 C8          -5.7290    -3.5590    -0.7710 ca         1 RFH       0.277100
     43 O2          -6.2910    -4.8000    -0.7420 oh         1 RFH      -0.522100
     44 C7          -4.3710    -3.4490    -1.1180 ca         1 RFH      -0.167300
     45 C14         -3.5350    -4.6910    -1.4420 c3         1 RFH      -0.024800
     46 C1          -7.9670    -2.5610    -0.1070 c          1 RFH       0.569900
     47 O1          -8.5060    -3.6650    -0.0750 o          1 RFH      -0.583100
     48 C4          -6.7220     0.1070    -0.0160 c          1 RFH       0.571900
     49 O12         -6.1850     1.1860     0.1880 o          1 RFH      -0.466100
     50 C3          -8.1780    -0.0560     0.2290 cd         1 RFH      -0.237800
     51 C43         -8.9090     1.1750     0.5720 cf         1 RFH       0.346500
     52 N2         -10.1480     1.3630     0.2110 n2         1 RFH      -0.383400
     53 H1          13.9920     6.8570     1.6300 hn         1 RFH       0.313000
     54 H2          14.4920     5.1800     1.7330 hn         1 RFH       0.313000
     55 H3          13.9270     3.3860     2.0000 hc         1 RFH       0.041033
     56 H4          13.0890     2.0820     1.2150 hc         1 RFH       0.041033
     57 H5          14.4130     2.8930     0.3690 hc         1 RFH       0.041033
     58 H6          10.8360     4.4200    -0.7580 ha         1 RFH       0.200000
     59 H7          11.8800     1.4870    -0.5100 ha         1 RFH       0.170000
     60 H8           9.3670     2.7380    -1.7710 ha         1 RFH       0.179000
     61 H9          10.5610    -0.0980    -1.7780 hc         1 RFH       0.053700
     62 H10          8.4640     1.1100    -3.6570 hc         1 RFH       0.040367
     63 H11         10.2040     1.0190    -4.0000 hc         1 RFH       0.040367
     64 H12          9.2670    -0.4690    -3.8250 hc         1 RFH       0.040367
     65 H13          7.6620     0.6680    -1.2490 h1         1 RFH       0.073700
     66 H14          9.4860     0.8990     0.3700 ho         1 RFH       0.446000
     67 H15          7.7750    -1.5090    -2.4200 hc         1 RFH       0.060700
     68 H16         10.0060    -2.3220    -1.9490 hc         1 RFH       0.037367
     69 H17          9.6500    -2.4860    -0.2170 hc         1 RFH       0.037367
     70 H18          8.8330    -3.5210    -1.4030 hc         1 RFH       0.037367
     71 H19          6.5570    -2.9350    -0.8560 h1         1 RFH       0.064700
     72 H20          7.8630    -1.1850     0.8670 ho         1 RFH       0.458000
     73 H21          5.7290    -0.0520    -0.3390 hc         1 RFH       0.065700
     74 H22          4.2220    -0.2570    -2.3680 hc         1 RFH       0.035033
     75 H23          5.9240    -0.2850    -2.7800 hc         1 RFH       0.035033
     76 H24          5.0020    -1.8030    -2.7570 hc         1 RFH       0.035033
     77 H25          4.6480    -1.7200     1.1240 h1         1 RFH       0.100700
     78 H26          2.6640    -5.0900    -1.0320 hc         1 RFH       0.065033
     79 H27          4.3130    -5.3520    -1.3770 hc         1 RFH       0.065033
     80 H28          3.6020    -6.1820     0.0730 hc         1 RFH       0.065033
     81 H29          2.5810    -0.7760    -0.9090 hc         1 RFH       0.060700
     82 H30          2.2900     1.2630     0.5660 hc         1 RFH       0.040700
     83 H31          3.7460     0.7860     1.4630 hc         1 RFH       0.040700
     84 H32          3.8430     1.2240    -0.2570 hc         1 RFH       0.040700
     85 H33          1.7840    -2.4890     0.6970 h1         1 RFH       0.030700
     86 H34          1.6830    -3.2590     2.9950 h1         1 RFH       0.030700
     87 H35          2.0180    -2.1030     4.3020 h1         1 RFH       0.030700
     88 H36          0.5440    -1.9300     3.3260 h1         1 RFH       0.030700
     89 H37          0.3610     0.0060     1.6340 ha         1 RFH       0.200000
     90 H38         -0.2070    -1.7930    -0.8210 h4         1 RFH       0.174000
     91 H39         -0.5730    -0.4990    -2.7400 hc         1 RFH       0.065033
     92 H40         -2.0860     0.0850    -3.4390 hc         1 RFH       0.065033
     93 H41         -1.1850     1.1090    -2.3120 hc         1 RFH       0.065033
     94 H42         -7.2390    -4.6610    -0.4860 ho         1 RFH       0.522000
     95 H43         -3.6380    -5.4530    -0.6610 hc         1 RFH       0.052033
     96 H44         -3.8550    -5.1400    -2.3900 hc         1 RFH       0.052033
     97 H45         -2.4650    -4.4690    -1.5290 hc         1 RFH       0.052033
     98 H46         -8.3260     1.9740     1.0380 h4         1 RFH       0.010800
     99 H48        -10.1710    -2.5420     0.3750 ho         1 RFH       0.486000
    100 N3         -10.8780     2.5220     0.3130 nh         1 RFH      -0.455700
    101 C40        -10.3820     3.7960     0.9380 c6         1 RFH       0.197300
    102 C38        -10.8760     5.0590     0.1670 c6         1 RFH       0.156300
    103 N4         -12.3550     5.0690    -0.0480 n3         1 RFH      -0.713600
    104 C42        -12.7760     3.8220    -0.7550 c6         1 RFH       0.156300
    105 C44        -12.3400     2.5300     0.0010 c6         1 RFH       0.197300
    106 C39        -12.8230     6.2950    -0.7300 c3         1 RFH       0.151100
    107 H47        -10.7360     3.8540     1.9770 h1         1 RFH       0.052950
    108 H49         -9.2850     3.8310     0.9680 h1         1 RFH       0.052950
    109 H50        -10.5680     5.9530     0.7300 h1         1 RFH       0.041450
    110 H51        -10.3560     5.0990    -0.8020 h1         1 RFH       0.041450
    111 H52        -13.8690     3.8030    -0.8750 h1         1 RFH       0.041450
    112 H53        -12.3420     3.7960    -1.7660 h1         1 RFH       0.041450
    113 H54        -12.6060     1.6550    -0.6080 h1         1 RFH       0.052950
    114 H55        -12.9130     2.4580     0.9370 h1         1 RFH       0.052950
    115 H56        -12.3880     6.3770    -1.7350 h1         1 RFH       0.032700
    116 H57        -13.9170     6.2910    -0.8270 h1         1 RFH       0.032700
    117 H58        -12.5380     7.1890    -0.1580 h1         1 RFH       0.032700
    118 O13        -10.0520    -1.5660     0.4540 oh         1 RFH      -0.475100
@<TRIPOS>BOND
     1     1     2 2   
     2     2     3 1   
     3     2     5 1   
     4     3    53 1   
     5     3    54 1   
     6     4    46 1   
     7     4    50 2   
     8     4   118 1   
     9     5     6 1   
    10     5     7 2   
    11     6    55 1   
    12     6    56 1   
    13     6    57 1   
    14     7     8 1   
    15     7    58 1   
    16     8     9 2   
    17     8    59 1   
    18     9    10 1   
    19     9    60 1   
    20    10    11 1   
    21    10    12 1   
    22    10    61 1   
    23    11    62 1   
    24    11    63 1   
    25    11    64 1   
    26    12    13 1   
    27    12    14 1   
    28    12    65 1   
    29    13    66 1   
    30    14    15 1   
    31    14    16 1   
    32    14    67 1   
    33    15    68 1   
    34    15    69 1   
    35    15    70 1   
    36    16    17 1   
    37    16    18 1   
    38    16    71 1   
    39    17    72 1   
    40    18    19 1   
    41    18    20 1   
    42    18    73 1   
    43    19    74 1   
    44    19    75 1   
    45    19    76 1   
    46    20    21 1   
    47    20    25 1   
    48    20    77 1   
    49    21    22 1   
    50    22    23 2   
    51    22    24 1   
    52    24    78 1   
    53    24    79 1   
    54    24    80 1   
    55    25    26 1   
    56    25    27 1   
    57    25    81 1   
    58    26    82 1   
    59    26    83 1   
    60    26    84 1   
    61    27    28 1   
    62    27    30 1   
    63    27    85 1   
    64    28    29 1   
    65    29    86 1   
    66    29    87 1   
    67    29    88 1   
    68    30    31 2   
    69    30    89 1   
    70    31    32 1   
    71    31    90 1   
    72    32    33 1   
    73    33    34 1   
    74    33    36 1   
    75    33    37 1   
    76    34    35 1   
    77    35    39 ar  
    78    35    44 ar  
    79    36    91 1   
    80    36    92 1   
    81    36    93 1   
    82    37    38 2   
    83    37    39 1   
    84    39    40 ar  
    85    40    41 ar  
    86    40    48 1   
    87    41    42 ar  
    88    41    46 1   
    89    42    43 1   
    90    42    44 ar  
    91    43    94 1   
    92    44    45 1   
    93    45    95 1   
    94    45    96 1   
    95    45    97 1   
    96    46    47 2   
    97    48    49 2   
    98    48    50 1   
    99    50    51 1   
   100    51    52 2   
   101    51    98 1   
   102    52   100 1   
   103    99   118 1   
   104   100   101 1   
   105   100   105 1   
   106   101   102 1   
   107   101   107 1   
   108   101   108 1   
   109   102   103 1   
   110   102   109 1   
   111   102   110 1   
   112   103   104 1   
   113   103   106 1   
   114   104   105 1   
   115   104   111 1   
   116   104   112 1   
   117   105   113 1   
   118   105   114 1   
   119   106   115 1   
   120   106   116 1   
   121   106   117 1   
@<TRIPOS>SUBSTRUCTURE
     1 RFH         1 TEMP              0 ****  ****    0 ROOT
