@<TRIPOS>MOLECULE
RFH
  118   121     1     0     0
SMALL
abcg2


@<TRIPOS>ATOM
      1 O11         11.0910     5.9300     2.4630 o          1 RFH      -0.615100
      2 C15         12.0300     5.1580     2.6340 c          1 RFH       0.608300
      3 N1          13.0300     5.4410     3.4850 nt         1 RFH      -0.608000
      4 C2          -8.3620    -0.4930     1.4400 cc         1 RFH       0.074900
      5 C16         12.1380     3.8490     1.9150 ce         1 RFH      -0.190400
      6 C30         13.3300     2.9760     2.1700 c3         1 RFH      -0.052900
      7 C17         11.1360     3.5420     1.0720 cf         1 RFH      -0.107000
      8 C18         11.0050     2.3470     0.2660 cf         1 RFH      -0.200000
      9 C19          9.9550     2.1460    -0.5390 c2         1 RFH      -0.178200
     10 C20          9.7650     0.9540    -1.4220 c3         1 RFH      -0.066500
     11 C31          9.7380     1.4000    -2.8860 c3         1 RFH      -0.084100
     12 C21          8.4730     0.2210    -1.0250 c3         1 RFH       0.172300
     13 O10          8.4850    -0.0920     0.3630 oh         1 RFH      -0.666000
     14 C22          8.1660    -1.0160    -1.8810 c3         1 RFH      -0.121700
     15 C32          9.3220    -2.0150    -1.9190 c3         1 RFH      -0.086100
     16 C23          6.8670    -1.7350    -1.4560 c3         1 RFH       0.180300
     17 O9           7.0330    -2.4360    -0.2430 oh         1 RFH      -0.655000
     18 C24          5.6190    -0.8290    -1.4140 c3         1 RFH      -0.096700
     19 C33          5.4160    -0.0880    -2.7340 c3         1 RFH      -0.085100
     20 C25          4.3830    -1.6370    -0.9950 c3         1 RFH       0.184300
     21 O7           4.1560    -2.6290    -2.0140 os         1 RFH      -0.472100
     22 C35          4.1640    -3.9290    -1.7300 c          1 RFH       0.594100
     23 O8           4.3010    -4.3880    -0.6250 o          1 RFH      -0.469000
     24 C36          3.9790    -4.7450    -2.9770 c3         1 RFH      -0.158100
     25 C26          3.0950    -0.8150    -0.8390 c3         1 RFH      -0.056700
     26 C34          3.3210     0.3760     0.0910 c3         1 RFH      -0.083100
     27 C27          1.9320    -1.7030    -0.3690 c3         1 RFH       0.221500
     28 O6           2.2110    -2.1260     0.9480 os         1 RFH      -0.444000
     29 C37          1.4540    -3.2370     1.3560 c3         1 RFH       0.145900
     30 C28          0.6050    -1.0060    -0.4420 c2         1 RFH      -0.289200
     31 C29         -0.3650    -1.4640    -1.2190 c2         1 RFH      -0.025900
     32 O5          -1.5590    -0.8150    -1.3270 os         1 RFH      -0.334100
     33 C12         -2.6530    -1.5600    -1.7650 c5         1 RFH       0.276000
     34 O3          -2.8520    -2.6590    -0.8890 os         1 RFH      -0.336100
     35 C6          -3.9440    -2.4580    -0.1420 ca         1 RFH       0.227100
     36 C13         -2.5570    -2.0550    -3.1890 c3         1 RFH      -0.110100
     37 C11         -3.8730    -0.6390    -1.5340 c          1 RFH       0.597700
     38 O4          -4.0670     0.3360    -2.2080 o          1 RFH      -0.433100
     39 C5          -4.6160    -1.2570    -0.4340 ca         1 RFH      -0.263600
     40 C10         -5.7890    -0.9670     0.2510 ca         1 RFH       0.042400
     41 C9          -6.2600    -1.8860     1.1870 ca         1 RFH      -0.318600
     42 C8          -5.5350    -3.0740     1.4720 ca         1 RFH       0.277100
     43 O2          -5.9520    -3.9420     2.3720 oh         1 RFH      -0.522100
     44 C7          -4.3430    -3.3770     0.8050 ca         1 RFH      -0.167300
     45 C14         -3.5840    -4.6300     1.1080 c3         1 RFH      -0.024800
     46 C1          -7.5400    -1.6570     1.8280 c          1 RFH       0.569900
     47 O1          -8.0060    -2.4250     2.6700 o          1 RFH      -0.583100
     48 C4          -6.5230     0.3240     0.0730 c          1 RFH       0.571900
     49 O12         -5.9660     1.2610    -0.4540 o          1 RFH      -0.466100
     50 C3          -7.9090     0.4450     0.5690 cd         1 RFH      -0.237800
     51 C43         -8.6330     1.6210     0.1290 cf         1 RFH       0.346500
     52 N2          -9.8410     1.8410     0.5090 n2         1 RFH      -0.383400
     53 H1          13.0190     6.3080     3.9970 hn         1 RFH       0.313000
     54 H2          13.8050     4.8240     3.6490 hn         1 RFH       0.313000
     55 H3          13.3850     2.6650     3.2160 hc         1 RFH       0.041033
     56 H4          13.3130     2.0690     1.5710 hc         1 RFH       0.041033
     57 H5          14.2640     3.4910     1.9340 hc         1 RFH       0.041033
     58 H6          10.3290     4.2600     0.9750 ha         1 RFH       0.200000
     59 H7          11.7810     1.5910     0.3120 ha         1 RFH       0.170000
     60 H8           9.1740     2.9020    -0.5870 ha         1 RFH       0.179000
     61 H9          10.6160     0.2770    -1.2820 hc         1 RFH       0.053700
     62 H10          8.8870     2.0560    -3.0830 hc         1 RFH       0.040367
     63 H11         10.6450     1.9520    -3.1320 hc         1 RFH       0.040367
     64 H12          9.6760     0.5530    -3.5680 hc         1 RFH       0.040367
     65 H13          7.6540     0.9370    -1.1460 h1         1 RFH       0.073700
     66 H14          9.3510    -0.4430     0.6000 ho         1 RFH       0.446000
     67 H15          8.0010    -0.6670    -2.9040 hc         1 RFH       0.060700
     68 H16         10.1920    -1.6110    -2.4370 hc         1 RFH       0.037367
     69 H17          9.6450    -2.3250    -0.9240 hc         1 RFH       0.037367
     70 H18          9.0260    -2.9180    -2.4550 hc         1 RFH       0.037367
     71 H19          6.6960    -2.4990    -2.2240 h1         1 RFH       0.064700
     72 H20          7.3890    -1.7990     0.3910 ho         1 RFH       0.458000
     73 H21          5.7700    -0.0900    -0.6200 hc         1 RFH       0.065700
     74 H22          4.4900     0.4880    -2.7370 hc         1 RFH       0.035033
     75 H23          6.2200     0.6250    -2.9180 hc         1 RFH       0.035033
     76 H24          5.3830    -0.7720    -3.5830 hc         1 RFH       0.035033
     77 H25          4.5990    -2.1300    -0.0460 h1         1 RFH       0.100700
     78 H26          3.0870    -4.4310    -3.5180 hc         1 RFH       0.065033
     79 H27          4.8280    -4.6020    -3.6480 hc         1 RFH       0.065033
     80 H28          3.8970    -5.8000    -2.7340 hc         1 RFH       0.065033
     81 H29          2.7970    -0.4350    -1.8210 hc         1 RFH       0.060700
     82 H30          2.3850     0.8810     0.3270 hc         1 RFH       0.040700
     83 H31          3.7800     0.0760     1.0340 hc         1 RFH       0.040700
     84 H32          3.9690     1.1200    -0.3710 hc         1 RFH       0.040700
     85 H33          1.8760    -2.5770    -1.0360 h1         1 RFH       0.030700
     86 H34          1.6190    -4.1010     0.7020 h1         1 RFH       0.030700
     87 H35          1.7730    -3.5030     2.3640 h1         1 RFH       0.030700
     88 H36          0.3790    -3.0290     1.3780 h1         1 RFH       0.030700
     89 H37          0.4420    -0.1230     0.1680 ha         1 RFH       0.200000
     90 H38         -0.2340    -2.3560    -1.8240 h4         1 RFH       0.174000
     91 H39         -1.7640    -2.7900    -3.3170 hc         1 RFH       0.065033
     92 H40         -3.4940    -2.5260    -3.4850 hc         1 RFH       0.065033
     93 H41         -2.3690    -1.2190    -3.8600 hc         1 RFH       0.065033
     94 H42         -6.8060    -3.6340     2.7490 ho         1 RFH       0.522000
     95 H43         -3.1830    -4.6080     2.1220 hc         1 RFH       0.052033
     96 H44         -4.2260    -5.5080     1.0320 hc         1 RFH       0.052033
     97 H45         -2.7510    -4.7670     0.4240 hc         1 RFH       0.052033
     98 H46         -8.0950     2.2720    -0.5520 h4         1 RFH       0.010800
     99 H48         -9.6490    -1.1940     2.6080 ho         1 RFH       0.486000
    100 N3         -10.5500     2.8580     0.0520 nh         1 RFH      -0.455700
    101 C40         -9.9560     3.9470    -0.6990 c6         1 RFH       0.197300
    102 C38        -11.0350     4.7760    -1.3740 c6         1 RFH       0.156300
    103 N4         -12.0400     5.2110    -0.4310 n3         1 RFH      -0.713600
    104 C42        -12.6750     4.0550     0.1680 c6         1 RFH       0.156300
    105 C44        -11.6530     3.2270     0.9190 c6         1 RFH       0.197300
    106 C39        -13.0040     6.0940    -1.0490 c3         1 RFH       0.151100
    107 H47         -9.3360     4.5740    -0.0430 h1         1 RFH       0.052950
    108 H49         -9.3090     3.5480    -1.4820 h1         1 RFH       0.052950
    109 H50        -10.5600     5.6480    -1.8270 h1         1 RFH       0.041450
    110 H51        -11.4760     4.1850    -2.1960 h1         1 RFH       0.041450
    111 H52        -13.4400     4.3850     0.8740 h1         1 RFH       0.041450
    112 H53        -13.1790     3.4280    -0.5880 h1         1 RFH       0.041450
    113 H54        -12.1110     2.3120     1.2940 h1         1 RFH       0.052950
    114 H55        -11.2880     3.7990     1.7820 h1         1 RFH       0.052950
    115 H56        -13.5660     5.6200    -1.8680 h1         1 RFH       0.032700
    116 H57        -13.7240     6.4390    -0.3060 h1         1 RFH       0.032700
    117 H58        -12.4980     6.9700    -1.4560 h1         1 RFH       0.032700
    118 O13         -9.5510    -0.4320     2.0130 oh         1 RFH      -0.475100
@<TRIPOS>BOND
     1     1     2 2   
     2     2     3 1   
     3     2     5 1   
     4     3    53 1   
     5     3    54 1   
     6     4    46 1   
     7     4    50 2   
     8     4   118 1   
     9     5     6 1   
    10     5     7 2   
    11     6    55 1   
    12     6    56 1   
    13     6    57 1   
    14     7     8 1   
    15     7    58 1   
    16     8     9 2   
    17     8    59 1   
    18     9    10 1   
    19     9    60 1   
    20    10    11 1   
    21    10    12 1   
    22    10    61 1   
    23    11    62 1   
    24    11    63 1   
    25    11    64 1   
    26    12    13 1   
    27    12    14 1   
    28    12    65 1   
    29    13    66 1   
    30    14    15 1   
    31    14    16 1   
    32    14    67 1   
    33    15    68 1   
    34    15    69 1   
    35    15    70 1   
    36    16    17 1   
    37    16    18 1   
    38    16    71 1   
    39    17    72 1   
    40    18    19 1   
    41    18    20 1   
    42    18    73 1   
    43    19    74 1   
    44    19    75 1   
    45    19    76 1   
    46    20    21 1   
    47    20    25 1   
    48    20    77 1   
    49    21    22 1   
    50    22    23 2   
    51    22    24 1   
    52    24    78 1   
    53    24    79 1   
    54    24    80 1   
    55    25    26 1   
    56    25    27 1   
    57    25    81 1   
    58    26    82 1   
    59    26    83 1   
    60    26    84 1   
    61    27    28 1   
    62    27    30 1   
    63    27    85 1   
    64    28    29 1   
    65    29    86 1   
    66    29    87 1   
    67    29    88 1   
    68    30    31 2   
    69    30    89 1   
    70    31    32 1   
    71    31    90 1   
    72    32    33 1   
    73    33    34 1   
    74    33    36 1   
    75    33    37 1   
    76    34    35 1   
    77    35    39 ar  
    78    35    44 ar  
    79    36    91 1   
    80    36    92 1   
    81    36    93 1   
    82    37    38 2   
    83    37    39 1   
    84    39    40 ar  
    85    40    41 ar  
    86    40    48 1   
    87    41    42 ar  
    88    41    46 1   
    89    42    43 1   
    90    42    44 ar  
    91    43    94 1   
    92    44    45 1   
    93    45    95 1   
    94    45    96 1   
    95    45    97 1   
    96    46    47 2   
    97    48    49 2   
    98    48    50 1   
    99    50    51 1   
   100    51    52 2   
   101    51    98 1   
   102    52   100 1   
   103    99   118 1   
   104   100   101 1   
   105   100   105 1   
   106   101   102 1   
   107   101   107 1   
   108   101   108 1   
   109   102   103 1   
   110   102   109 1   
   111   102   110 1   
   112   103   104 1   
   113   103   106 1   
   114   104   105 1   
   115   104   111 1   
   116   104   112 1   
   117   105   113 1   
   118   105   114 1   
   119   106   115 1   
   120   106   116 1   
   121   106   117 1   
@<TRIPOS>SUBSTRUCTURE
     1 RFH         1 TEMP              0 ****  ****    0 ROOT
