@<TRIPOS>MOLECULE
RFI
   41    45     1     0     0
SMALL
No Charge or Current Charge


@<TRIPOS>ATOM
      1 C17        -45.5980   -32.8950     1.6340 c          1 RFI       0.700100
      2 C15        -45.8290   -33.4230    -0.6020 c5         1 RFI       0.143600
      3 C14        -44.6430   -32.4220    -0.5140 c5         1 RFI       0.062000
      4 C12        -43.8150   -30.9760     1.3770 c5         1 RFI       0.124700
      5 C11        -44.4340   -29.6090     0.9600 c5         1 RFI      -0.125400
      6 C10        -45.5690   -29.4210     1.9970 c5         1 RFI       0.227800
      7 C19        -43.7580   -30.8060     2.9350 c5         1 RFI       0.227800
      8 C02        -50.4500   -29.8540     4.9550 ca         1 RFI       0.191000
      9 C03        -49.8710   -28.9710     5.8870 ca         1 RFI      -0.179000
     10 C04        -48.4900   -28.7780     5.8050 ca         1 RFI       0.002800
     11 C06        -46.2850   -28.1520     6.2390 ca         1 RFI       0.195500
     12 C07        -46.3030   -28.9750     5.1070 cp         1 RFI      -0.239000
     13 C08        -45.0720   -29.2410     4.4620 ca         1 RFI       0.454900
     14 C21        -44.0260   -27.9810     6.0970 ca         1 RFI       0.193900
     15 C23        -47.6830   -29.3990     4.8580 cp         1 RFI      -0.055000
     16 C24        -48.2560   -30.3170     3.9540 ca         1 RFI      -0.047000
     17 C25        -49.6520   -30.5290     4.0020 ca         1 RFI      -0.178000
     18 N05        -47.6280   -28.0320     6.6150 na         1 RFI      -0.325300
     19 N09        -44.9330   -29.9260     3.2400 nh         1 RFI      -0.764300
     20 N13        -44.7620   -32.0500     0.8980 n          1 RFI      -0.455800
     21 N20        -43.9280   -28.7400     4.9800 nb         1 RFI      -0.306000
     22 N22        -45.1570   -27.6440     6.7540 nb         1 RFI      -0.248000
     23 O16        -46.1540   -33.7870     0.7660 os         1 RFI      -0.415100
     24 O18        -45.8030   -32.8980     2.8360 o          1 RFI      -0.516000
     25 H151       -46.7080   -32.9400    -1.0480 h1         1 RFI       0.067200
     26 H152       -45.5880   -34.3200    -1.1870 h1         1 RFI       0.067200
     27 H142       -43.6820   -32.9110    -0.7200 h1         1 RFI       0.056200
     28 H141       -44.7700   -31.5730    -1.1980 h1         1 RFI       0.056200
     29 H121       -42.8130   -31.1250     0.9540 h1         1 RFI       0.065700
     30 H112       -43.6930   -28.8070     1.0540 hc         1 RFI       0.062700
     31 H111       -44.8010   -29.5820    -0.0710 hc         1 RFI       0.062700
     32 H102       -45.8710   -28.3670     2.0770 h1         1 RFI       0.060700
     33 H101       -46.4530   -30.0080     1.7170 h1         1 RFI       0.060700
     34 H191       -43.7680   -31.7610     3.4750 h1         1 RFI       0.077200
     35 H192       -42.8170   -30.3050     3.2010 h1         1 RFI       0.077200
     36 H031       -50.4730   -28.4740     6.6420 ha         1 RFI       0.136000
     37 H211       -43.0950   -27.5850     6.4980 h5         1 RFI       0.045100
     38 H241       -47.6420   -30.8730     3.2540 ha         1 RFI       0.118000
     39 H251       -50.1170   -31.2280     3.3110 ha         1 RFI       0.131000
     40 H051       -47.9340   -27.4700     7.4010 hn         1 RFI       0.368000
     41 F01        -51.7810   -30.0810     4.9900 f          1 RFI      -0.180000
@<TRIPOS>BOND
     1     1    20 1   
     2     1    23 1   
     3     1    24 2   
     4     2     3 1   
     5     2    23 1   
     6     2    25 1   
     7     2    26 1   
     8     3    20 1   
     9     3    27 1   
    10     3    28 1   
    11     4     5 1   
    12     4     7 1   
    13     4    20 1   
    14     4    29 1   
    15     5     6 1   
    16     5    30 1   
    17     5    31 1   
    18     6    19 1   
    19     6    32 1   
    20     6    33 1   
    21     7    19 1   
    22     7    34 1   
    23     7    35 1   
    24     8     9 ar  
    25     8    17 ar  
    26     8    41 1   
    27     9    10 ar  
    28     9    36 1   
    29    10    15 ar  
    30    10    18 1   
    31    11    12 ar  
    32    11    18 1   
    33    11    22 ar  
    34    12    13 ar  
    35    12    15 1   
    36    13    19 1   
    37    13    21 ar  
    38    14    21 ar  
    39    14    22 ar  
    40    14    37 1   
    41    15    16 ar  
    42    16    17 ar  
    43    16    38 1   
    44    17    39 1   
    45    18    40 1   
@<TRIPOS>SUBSTRUCTURE
     1 RFI         1 TEMP              0 ****  ****    0 ROOT
