@<TRIPOS>MOLECULE
RFI
   41    45     1     0     0
SMALL
abcg2


@<TRIPOS>ATOM
      1 C17        -44.8520   -33.0180     1.6160 c          1 RFI       0.700100
      2 C15        -44.8850   -33.8720    -0.4940 c5         1 RFI       0.143600
      3 C14        -44.1760   -32.5200    -0.5440 c5         1 RFI       0.062000
      4 C12        -44.0450   -30.6720     1.1290 c5         1 RFI       0.124700
      5 C11        -45.2050   -29.7270     0.8110 c5         1 RFI      -0.125400
      6 C10        -46.0650   -29.8270     2.0610 c5         1 RFI       0.227800
      7 C19        -43.7830   -30.3700     2.6010 c5         1 RFI       0.227800
      8 C02        -50.6050   -28.9940     5.1240 ca         1 RFI       0.191000
      9 C03        -49.8110   -28.4450     6.1040 ca         1 RFI      -0.179000
     10 C04        -48.4400   -28.5840     5.9320 ca         1 RFI       0.002800
     11 C06        -46.2420   -28.5450     6.2780 ca         1 RFI       0.195500
     12 C07        -46.4210   -29.1620     5.0260 cp         1 RFI      -0.239000
     13 C08        -45.2120   -29.5290     4.3830 ca         1 RFI       0.454900
     14 C21        -44.0630   -28.8630     6.2650 ca         1 RFI       0.193900
     15 C23        -47.8560   -29.2250     4.8140 cp         1 RFI      -0.055000
     16 C24        -48.7200   -29.7930     3.8770 ca         1 RFI      -0.047000
     17 C25        -50.0910   -29.6730     4.0270 ca         1 RFI      -0.178000
     18 N05        -47.4470   -28.1770     6.7810 na         1 RFI      -0.325300
     19 N09        -45.0870   -29.9760     3.1260 nh         1 RFI      -0.764300
     20 N13        -44.3750   -32.0480     0.8080 n          1 RFI      -0.455800
     21 N20        -44.0600   -29.4180     5.0680 nb         1 RFI      -0.306000
     22 N22        -45.0940   -28.3640     6.9230 nb         1 RFI      -0.248000
     23 O16        -45.0540   -34.1380     0.8980 os         1 RFI      -0.415100
     24 O18        -45.0830   -32.9860     2.8010 o          1 RFI      -0.516000
     25 H151       -45.8660   -33.8350    -0.9700 h1         1 RFI       0.067200
     26 H152       -44.3040   -34.6750    -0.9440 h1         1 RFI       0.067200
     27 H142       -43.1110   -32.6060    -0.7730 h1         1 RFI       0.056200
     28 H141       -44.6290   -31.8500    -1.2760 h1         1 RFI       0.056200
     29 H121       -43.1550   -30.4260     0.5470 h1         1 RFI       0.065700
     30 H112       -44.8250   -28.7100     0.6880 hc         1 RFI       0.062700
     31 H111       -45.7440   -29.9980    -0.0960 hc         1 RFI       0.062700
     32 H102       -46.6820   -28.9420     2.2110 h1         1 RFI       0.060700
     33 H101       -46.7180   -30.7000     1.9960 h1         1 RFI       0.060700
     34 H191       -43.3510   -31.2000     3.1550 h1         1 RFI       0.077200
     35 H192       -43.0800   -29.5360     2.6590 h1         1 RFI       0.077200
     36 H031       -50.2330   -27.9440     6.9650 ha         1 RFI       0.136000
     37 H211       -43.0990   -28.8000     6.7610 h5         1 RFI       0.045100
     38 H241       -48.3520   -30.3520     3.0330 ha         1 RFI       0.118000
     39 H251       -50.7610   -30.1110     3.3000 ha         1 RFI       0.131000
     40 H051       -47.5830   -27.7380     7.6780 hn         1 RFI       0.368000
     41 F01        -51.9390   -28.8870     5.2420 f          1 RFI      -0.180000
@<TRIPOS>BOND
     1     1    20 1   
     2     1    23 1   
     3     1    24 2   
     4     2     3 1   
     5     2    23 1   
     6     2    25 1   
     7     2    26 1   
     8     3    20 1   
     9     3    27 1   
    10     3    28 1   
    11     4     5 1   
    12     4     7 1   
    13     4    20 1   
    14     4    29 1   
    15     5     6 1   
    16     5    30 1   
    17     5    31 1   
    18     6    19 1   
    19     6    32 1   
    20     6    33 1   
    21     7    19 1   
    22     7    34 1   
    23     7    35 1   
    24     8     9 ar  
    25     8    17 ar  
    26     8    41 1   
    27     9    10 ar  
    28     9    36 1   
    29    10    15 ar  
    30    10    18 1   
    31    11    12 ar  
    32    11    18 1   
    33    11    22 ar  
    34    12    13 ar  
    35    12    15 1   
    36    13    19 1   
    37    13    21 ar  
    38    14    21 ar  
    39    14    22 ar  
    40    14    37 1   
    41    15    16 ar  
    42    16    17 ar  
    43    16    38 1   
    44    17    39 1   
    45    18    40 1   
@<TRIPOS>SUBSTRUCTURE
     1 RFI         1 TEMP              0 ****  ****    0 ROOT
