@<TRIPOS>MOLECULE
RFL
   89    94     1     0     0
SMALL
No Charge or Current Charge


@<TRIPOS>ATOM
      1 PA           0.0900    -3.8410     4.0700 p5         1 RFL       1.458800
      2 OA1         -0.4200    -5.2420     4.1570 o          1 RFL      -0.850500
      3 OA2         -1.0060    -2.8330     4.1600 o          1 RFL      -0.850500
      4 O5           1.1500    -3.6170     5.2680 os         1 RFL      -0.562400
      5 C5           1.4830    -2.3200     5.7980 c3         1 RFL       0.215600
      6 C4           2.2160    -1.4180     4.7470 c5         1 RFL       0.157300
      7 O4           1.2990    -0.4680     4.1420 os         1 RFL      -0.410000
      8 C1           1.2050     0.7080     4.9850 c5         1 RFL       0.323300
      9 N9          -0.1440     0.8100     5.5450 na         1 RFL      -0.294300
     10 C12         -0.5770     1.5310     6.6310 ca         1 RFL       0.106500
     11 N3           0.0980     2.3000     7.5110 nb         1 RFL      -0.209000
     12 C2          -0.6420     2.8850     8.4820 ca         1 RFL       0.144900
     13 N1          -1.9800     2.7760     8.6560 nb         1 RFL      -0.326000
     14 C6          -2.6260     2.0080     7.7670 ca         1 RFL       0.430900
     15 N6          -3.9710     1.9070     7.9410 nv         1 RFL      -1.075900
     16 C11         -1.9370     1.3620     6.7160 ca         1 RFL      -0.080600
     17 N7          -2.4380     0.5570     5.7010 nc         1 RFL      -0.565100
     18 C8          -1.3200     0.2450     5.0110 cd         1 RFL       0.464700
     19 C13          2.3910     0.5990     6.0210 c5         1 RFL       0.069300
     20 O2           3.1240     1.8270     6.2200 oh         1 RFL      -0.706000
     21 C3           3.2980    -0.4860     5.3750 c5         1 RFL       0.098300
     22 O3           4.1650     0.1200     4.4100 oh         1 RFL      -0.713000
     23 OA3          1.0890    -3.5930     2.8780 os         1 RFL      -0.685800
     24 PF           0.5640    -4.1510     1.5030 p5         1 RFL       1.460800
     25 OF1         -0.8280    -3.7400     1.1620 o          1 RFL      -0.847000
     26 OF2          0.8090    -5.6150     1.3440 o          1 RFL      -0.847000
     27 O5R          1.6150    -3.3320     0.5920 os         1 RFL      -0.568400
     28 C5R          1.6050    -3.4920    -0.8370 c3         1 RFL       0.203600
     29 C4R          0.6300    -2.4480    -1.4550 c3         1 RFL       0.128300
     30 O4R          0.9150    -1.1650    -0.8530 oh         1 RFL      -0.719000
     31 C3R          0.7420    -2.3730    -3.0160 c3         1 RFL       0.095300
     32 O3R          0.4360    -3.6600    -3.5880 oh         1 RFL      -0.657000
     33 C2R         -0.1620    -1.2730    -3.6660 c3         1 RFL       0.129300
     34 O2R          0.1610    -0.0010    -3.0830 oh         1 RFL      -0.753000
     35 C1R         -0.0190    -1.2140    -5.2140 c3         1 RFL       0.064600
     36 N10         -0.8290    -0.1460    -5.8760 na         1 RFL       0.009000
     37 C10         -2.1790    -0.2900    -6.2170 cc         1 RFL       0.122000
     38 N1F         -2.7550    -1.3830    -5.7370 nd         1 RFL      -0.461400
     39 C2F         -4.0980    -1.6730    -6.0090 c          1 RFL       0.732400
     40 O2F         -4.6390    -2.6710    -5.5690 o          1 RFL      -0.523000
     41 N3F         -4.7630    -0.7830    -6.7890 ns         1 RFL      -0.499500
     42 C4F         -4.2840     0.3720    -7.3490 c          1 RFL       0.490500
     43 O4F         -5.0260     1.0630    -8.0360 o          1 RFL      -0.523000
     44 C4A         -2.8430     0.6830    -7.0490 cc         1 RFL       0.175500
     45 N5F         -2.2750     1.7860    -7.5500 nd         1 RFL      -0.515000
     46 C9A         -0.2250     1.0600    -6.3030 ca         1 RFL       0.078000
     47 C5A         -0.9420     1.9610    -7.1390 ca         1 RFL       0.113000
     48 C9F          1.0910     1.4190    -5.9100 ca         1 RFL      -0.235000
     49 C8F          1.7060     2.5950    -6.3570 ca         1 RFL       0.396000
     50 N8M          3.0190     2.8830    -5.9210 nh         1 RFL      -0.817400
     51 CM1          3.2880     4.0580    -5.0630 c3         1 RFL       0.199600
     52 CM2          4.0990     1.8830    -6.0590 c3         1 RFL       0.199600
     53 C6F         -0.3100     3.1350    -7.5920 ca         1 RFL       0.002000
     54 C7F          1.0070     3.4600    -7.2230 ca         1 RFL      -0.159300
     55 C7M          1.6360     4.7400    -7.7750 c3         1 RFL      -0.032800
     56 H5'1         0.5850    -1.8140     6.1730 h1         1 RFL       0.011700
     57 H5'2         2.1500    -2.4580     6.6590 h1         1 RFL       0.011700
     58 HC4          2.6650    -2.0520     3.9730 h1         1 RFL       0.096700
     59 HC1          1.3350     1.6000     4.3590 h2         1 RFL       0.095700
     60 HC21        -0.1050     3.5070     9.1960 h5         1 RFL       0.022100
     61 HN61        -4.4310     2.5990     8.5270 hn         1 RFL       0.496000
     62 HN62        -4.5130     1.5220     7.1710 hn         1 RFL       0.496000
     63 HC81        -1.2880    -0.3580     4.1100 h5         1 RFL       0.154800
     64 HC2          2.0100     0.2260     6.9830 h1         1 RFL       0.071700
     65 HO2          2.5680     2.4110     6.7910 ho         1 RFL       0.499000
     66 HC3          3.8910    -1.0140     6.1350 h1         1 RFL       0.049700
     67 HO3          4.2320     1.0530     4.7360 ho         1 RFL       0.501000
     68 H5R1         1.2940    -4.5060    -1.1230 h1         1 RFL       0.023200
     69 H5R2         2.6140    -3.3280    -1.2380 h1         1 RFL       0.023200
     70 HC4R        -0.3960    -2.7520    -1.2060 h1         1 RFL       0.082700
     71 HO4R         1.2490    -1.3910     0.0520 ho         1 RFL       0.510000
     72 HC3R         1.7850    -2.1190    -3.2550 h1         1 RFL       0.067700
     73 HO3R        -0.5090    -3.8620    -3.4050 ho         1 RFL       0.453000
     74 HC2R        -1.2080    -1.5180    -3.4330 h1         1 RFL       0.063700
     75 HO2R         0.4630    -0.2350    -2.1530 ho         1 RFL       0.548000
     76 H1R1        -0.3390    -2.1790    -5.6260 h1         1 RFL       0.080700
     77 H1R2         1.0360    -1.1340    -5.4930 h1         1 RFL       0.080700
     78 HN3F        -5.7270    -1.0070    -6.9770 hn         1 RFL       0.328500
     79 HC9F         1.6580     0.8070    -5.2190 ha         1 RFL       0.146000
     80 HM11         3.8810     4.8050    -5.6080 h1         1 RFL       0.042867
     81 HM12         2.3480     4.5290    -4.7460 h1         1 RFL       0.042867
     82 HM13         3.8370     3.7610    -4.1590 h1         1 RFL       0.042867
     83 HM21         3.8860     1.1970    -6.8900 h1         1 RFL       0.042867
     84 HM22         5.0570     2.3770    -6.2700 h1         1 RFL       0.042867
     85 HM23         4.2010     1.2940    -5.1380 h1         1 RFL       0.042867
     86 HC6F        -0.8630     3.8090    -8.2410 ha         1 RFL       0.129000
     87 H7M1         1.6320     5.5370    -7.0220 hc         1 RFL       0.039033
     88 H7M2         2.6740     4.5740    -8.0870 hc         1 RFL       0.039033
     89 H7M3         1.0930     5.1130    -8.6520 hc         1 RFL       0.039033
@<TRIPOS>BOND
     1     1     2 1   
     2     1     3 1   
     3     1     4 1   
     4     1    23 1   
     5     4     5 1   
     6     5     6 1   
     7     5    56 1   
     8     5    57 1   
     9     6     7 1   
    10     6    21 1   
    11     6    58 1   
    12     7     8 1   
    13     8     9 1   
    14     8    19 1   
    15     8    59 1   
    16     9    10 1   
    17     9    18 1   
    18    10    11 ar  
    19    10    16 ar  
    20    11    12 ar  
    21    12    13 ar  
    22    12    60 1   
    23    13    14 ar  
    24    14    15 1   
    25    14    16 ar  
    26    15    61 1   
    27    15    62 1   
    28    16    17 1   
    29    17    18 2   
    30    18    63 1   
    31    19    20 1   
    32    19    21 1   
    33    19    64 1   
    34    20    65 1   
    35    21    22 1   
    36    21    66 1   
    37    22    67 1   
    38    23    24 1   
    39    24    25 1   
    40    24    26 1   
    41    24    27 1   
    42    27    28 1   
    43    28    29 1   
    44    28    68 1   
    45    28    69 1   
    46    29    30 1   
    47    29    31 1   
    48    29    70 1   
    49    30    71 1   
    50    31    32 1   
    51    31    33 1   
    52    31    72 1   
    53    32    73 1   
    54    33    34 1   
    55    33    35 1   
    56    33    74 1   
    57    34    75 1   
    58    35    36 1   
    59    35    76 1   
    60    35    77 1   
    61    36    37 1   
    62    36    46 1   
    63    37    38 2   
    64    37    44 1   
    65    38    39 1   
    66    39    40 2   
    67    39    41 1   
    68    41    42 1   
    69    41    78 1   
    70    42    43 2   
    71    42    44 1   
    72    44    45 2   
    73    45    47 1   
    74    46    47 ar  
    75    46    48 ar  
    76    47    53 ar  
    77    48    49 ar  
    78    48    79 1   
    79    49    50 1   
    80    49    54 ar  
    81    50    51 1   
    82    50    52 1   
    83    51    80 1   
    84    51    81 1   
    85    51    82 1   
    86    52    83 1   
    87    52    84 1   
    88    52    85 1   
    89    53    54 ar  
    90    53    86 1   
    91    54    55 1   
    92    55    87 1   
    93    55    88 1   
    94    55    89 1   
@<TRIPOS>SUBSTRUCTURE
     1 RFL         1 TEMP              0 ****  ****    0 ROOT
