@<TRIPOS>MOLECULE
RFL
   89    94     1     0     0
SMALL
abcg2


@<TRIPOS>ATOM
      1 PA           1.9100    -3.1130     4.1780 p5         1 RFL       1.458800
      2 OA1          2.9130    -4.2220     4.1720 o          1 RFL      -0.850500
      3 OA2          0.6460    -3.2480     4.9740 o          1 RFL      -0.850500
      4 O5           2.6450    -1.6920     4.5640 os         1 RFL      -0.562400
      5 C5           2.9810    -1.4620     5.9110 c3         1 RFL       0.215600
      6 C4           2.9920     0.0340     6.1630 c5         1 RFL       0.157300
      7 O4           1.7310     0.6190     5.8230 os         1 RFL      -0.410000
      8 C1           1.0270     0.9830     6.9740 c5         1 RFL       0.323300
      9 N9          -0.3470     0.5580     6.8480 na         1 RFL      -0.294300
     10 C12         -1.4470     1.2840     7.2030 ca         1 RFL       0.106500
     11 N3          -1.5010     2.5190     7.6990 nb         1 RFL      -0.209000
     12 C2          -2.7460     2.9060     7.9140 ca         1 RFL       0.144900
     13 N1          -3.8720     2.2280     7.7030 nb         1 RFL      -0.326000
     14 C6          -3.8010     0.9890     7.2040 ca         1 RFL       0.430900
     15 N6          -4.9280     0.3010     7.0030 nv         1 RFL      -1.075900
     16 C11         -2.5270     0.4600     6.9280 ca         1 RFL      -0.080600
     17 N7          -2.1070    -0.7380     6.4120 nc         1 RFL      -0.565100
     18 C8          -0.8090    -0.6450     6.3810 cd         1 RFL       0.464700
     19 C13          1.7680     0.3390     8.1470 c5         1 RFL       0.069300
     20 O2           1.5470     1.0740     9.3130 oh         1 RFL      -0.706000
     21 C3           3.2100     0.3580     7.6330 c5         1 RFL       0.098300
     22 O3           3.7630     1.6440     7.7370 oh         1 RFL      -0.713000
     23 OA3          1.5490    -2.6480     2.6510 os         1 RFL      -0.685800
     24 PF           1.6830    -3.6330     1.3400 p5         1 RFL       1.460800
     25 OF1          0.9110    -4.8920     1.5720 o          1 RFL      -0.847000
     26 OF2          3.0970    -3.6780     0.8540 o          1 RFL      -0.847000
     27 O5R          0.8120    -2.6190     0.3770 os         1 RFL      -0.568400
     28 C5R          0.9210    -2.7870    -1.0200 c3         1 RFL       0.203600
     29 C4R          0.1040    -1.7040    -1.7060 c3         1 RFL       0.128300
     30 O4R          0.5340    -0.4110    -1.3150 oh         1 RFL      -0.719000
     31 C3R          0.1370    -1.8750    -3.2370 c3         1 RFL       0.095300
     32 O3R         -0.3720    -3.1370    -3.6040 oh         1 RFL      -0.657000
     33 C2R         -0.6060    -0.7440    -3.9710 c3         1 RFL       0.129300
     34 O2R          0.0510     0.4900    -3.8530 oh         1 RFL      -0.753000
     35 C1R         -0.7040    -1.0770    -5.4600 c3         1 RFL       0.064600
     36 N10         -1.1310     0.0790    -6.2460 na         1 RFL       0.009000
     37 C10         -2.4660     0.3330    -6.3240 cc         1 RFL       0.122000
     38 N1F         -3.2930    -0.4460    -5.6780 nd         1 RFL      -0.461400
     39 C2F         -4.6270    -0.2180    -5.7600 c          1 RFL       0.732400
     40 O2F         -5.4490    -0.9090    -5.1850 o          1 RFL      -0.523000
     41 N3F         -5.0760     0.8560    -6.5310 ns         1 RFL      -0.499500
     42 C4F         -4.3040     1.7280    -7.2410 c          1 RFL       0.490500
     43 O4F         -4.7700     2.6420    -7.8900 o          1 RFL      -0.523000
     44 C4A         -2.8630     1.4460    -7.1340 cc         1 RFL       0.175500
     45 N5F         -2.0280     2.2080    -7.7730 nd         1 RFL      -0.515000
     46 C9A         -0.2180     0.8910    -6.8780 ca         1 RFL       0.078000
     47 C5A         -0.7200     1.9600    -7.6620 ca         1 RFL       0.113000
     48 C9F          1.1570     0.7220    -6.7810 ca         1 RFL      -0.235000
     49 C8F          2.0500     1.5610    -7.4560 ca         1 RFL       0.396000
     50 N8M          3.3920     1.3450    -7.3420 nh         1 RFL      -0.817400
     51 CM1          4.3260     2.4390    -7.1360 c3         1 RFL       0.199600
     52 CM2          3.8810     0.0720    -6.8610 c3         1 RFL       0.199600
     53 C6F          0.1920     2.7770    -8.3640 ca         1 RFL       0.002000
     54 C7F          1.5430     2.6020    -8.3080 ca         1 RFL      -0.159300
     55 C7M          2.4250     3.4140    -9.2140 c3         1 RFL      -0.032800
     56 H5'1         2.2770    -1.9550     6.5920 h1         1 RFL       0.011700
     57 H5'2         3.9780    -1.8560     6.1410 h1         1 RFL       0.011700
     58 HC4          3.7600     0.4990     5.5390 h1         1 RFL       0.096700
     59 HC1          1.0000     2.0710     7.1010 h2         1 RFL       0.095700
     60 HC21        -2.8730     3.9050     8.3170 h5         1 RFL       0.022100
     61 HN61        -5.8180     0.7520     7.1250 hn         1 RFL       0.496000
     62 HN62        -4.9110    -0.5880     6.5340 hn         1 RFL       0.496000
     63 HC81        -0.1490    -1.4160     6.0020 h5         1 RFL       0.154800
     64 HC2          1.4420    -0.7030     8.2600 h1         1 RFL       0.071700
     65 HO2          1.7490     0.5190    10.0730 ho         1 RFL       0.499000
     66 HC3          3.8340    -0.3960     8.1320 h1         1 RFL       0.049700
     67 HO3          3.5900     1.9710     8.6280 ho         1 RFL       0.501000
     68 H5R1         0.5610    -3.7700    -1.3350 h1         1 RFL       0.023200
     69 H5R2         1.9680    -2.7060    -1.3440 h1         1 RFL       0.023200
     70 HC4R        -0.9400    -1.7780    -1.3770 h1         1 RFL       0.082700
     71 HO4R         1.4980    -0.3810    -1.3430 ho         1 RFL       0.510000
     72 HC3R         1.1810    -1.8610    -3.5740 h1         1 RFL       0.067700
     73 HO3R        -1.2800    -3.2150    -3.2880 ho         1 RFL       0.453000
     74 HC2R        -1.6320    -0.6800    -3.5750 h1         1 RFL       0.063700
     75 HO2R         0.1930     0.6390    -2.9080 ho         1 RFL       0.548000
     76 H1R1        -1.4310    -1.8670    -5.6210 h1         1 RFL       0.080700
     77 H1R2         0.2460    -1.4300    -5.8560 h1         1 RFL       0.080700
     78 HN3F        -6.0780     0.9980    -6.5610 hn         1 RFL       0.328500
     79 HC9F         1.5640    -0.0210    -6.1170 ha         1 RFL       0.146000
     80 HM11         5.0930     2.4720    -7.9120 h1         1 RFL       0.042867
     81 HM12         3.8200     3.3970    -7.1020 h1         1 RFL       0.042867
     82 HM13         4.8220     2.3110    -6.1710 h1         1 RFL       0.042867
     83 HM21         3.3250    -0.7510    -7.3060 h1         1 RFL       0.042867
     84 HM22         4.9240    -0.0320    -7.1580 h1         1 RFL       0.042867
     85 HM23         3.8360    -0.0200    -5.7700 h1         1 RFL       0.042867
     86 HC6F        -0.2300     3.5420    -9.0050 ha         1 RFL       0.129000
     87 H7M1         2.8440     4.2930    -8.7230 hc         1 RFL       0.039033
     88 H7M2         3.2570     2.8240    -9.5960 hc         1 RFL       0.039033
     89 H7M3         1.8490     3.7690   -10.0680 hc         1 RFL       0.039033
@<TRIPOS>BOND
     1     1     2 1   
     2     1     3 1   
     3     1     4 1   
     4     1    23 1   
     5     4     5 1   
     6     5     6 1   
     7     5    56 1   
     8     5    57 1   
     9     6     7 1   
    10     6    21 1   
    11     6    58 1   
    12     7     8 1   
    13     8     9 1   
    14     8    19 1   
    15     8    59 1   
    16     9    10 1   
    17     9    18 1   
    18    10    11 ar  
    19    10    16 ar  
    20    11    12 ar  
    21    12    13 ar  
    22    12    60 1   
    23    13    14 ar  
    24    14    15 1   
    25    14    16 ar  
    26    15    61 1   
    27    15    62 1   
    28    16    17 1   
    29    17    18 2   
    30    18    63 1   
    31    19    20 1   
    32    19    21 1   
    33    19    64 1   
    34    20    65 1   
    35    21    22 1   
    36    21    66 1   
    37    22    67 1   
    38    23    24 1   
    39    24    25 1   
    40    24    26 1   
    41    24    27 1   
    42    27    28 1   
    43    28    29 1   
    44    28    68 1   
    45    28    69 1   
    46    29    30 1   
    47    29    31 1   
    48    29    70 1   
    49    30    71 1   
    50    31    32 1   
    51    31    33 1   
    52    31    72 1   
    53    32    73 1   
    54    33    34 1   
    55    33    35 1   
    56    33    74 1   
    57    34    75 1   
    58    35    36 1   
    59    35    76 1   
    60    35    77 1   
    61    36    37 1   
    62    36    46 1   
    63    37    38 2   
    64    37    44 1   
    65    38    39 1   
    66    39    40 2   
    67    39    41 1   
    68    41    42 1   
    69    41    78 1   
    70    42    43 2   
    71    42    44 1   
    72    44    45 2   
    73    45    47 1   
    74    46    47 ar  
    75    46    48 ar  
    76    47    53 ar  
    77    48    49 ar  
    78    48    79 1   
    79    49    50 1   
    80    49    54 ar  
    81    50    51 1   
    82    50    52 1   
    83    51    80 1   
    84    51    81 1   
    85    51    82 1   
    86    52    83 1   
    87    52    84 1   
    88    52    85 1   
    89    53    54 ar  
    90    53    86 1   
    91    54    55 1   
    92    55    87 1   
    93    55    88 1   
    94    55    89 1   
@<TRIPOS>SUBSTRUCTURE
     1 RFL         1 TEMP              0 ****  ****    0 ROOT
