@<TRIPOS>MOLECULE
RFM
   55    59     1     0     0
SMALL
abcg2


@<TRIPOS>ATOM
      1 O01         -7.3500   -21.6130    29.0270 o          1 RFM      -0.575100
      2 C02         -7.2980   -22.5320    28.2180 c          1 RFM       0.588100
      3 N03         -6.2080   -23.3080    28.0280 n          1 RFM      -0.241400
      4 C04         -6.1500   -24.3450    27.0420 ca         1 RFM      -0.100000
      5 C05         -6.3790   -25.6650    27.4100 ca         1 RFM      -0.078000
      6 C06         -6.2840   -26.6910    26.4800 ca         1 RFM      -0.147000
      7 C07         -5.9440   -26.3950    25.1560 ca         1 RFM      -0.009000
      8 N08         -5.7960   -27.3620    24.1520 ns         1 RFM      -0.145000
      9 C09         -6.0710   -28.6980    24.1950 c          1 RFM       0.620700
     10 C10         -5.7090   -29.4630    22.9600 ca         1 RFM      -0.157600
     11 C11         -4.6730   -29.0780    22.1040 ca         1 RFM      -0.070000
     12 C12         -4.3640   -29.8490    20.9900 ca         1 RFM      -0.117000
     13 C13         -5.0890   -31.0030    20.7150 ca         1 RFM      -0.083000
     14 C14         -6.1200   -31.3940    21.5670 ca         1 RFM      -0.117000
     15 C15         -6.4220   -30.6320    22.6860 ca         1 RFM      -0.070000
     16 O16         -6.5870   -29.2530    25.1600 o          1 RFM      -0.579100
     17 C17         -5.7090   -25.0630    24.7910 ca         1 RFM      -0.147000
     18 C18         -5.8070   -24.0480    25.7270 ca         1 RFM      -0.078000
     19 C19         -4.9770   -23.0650    28.8020 c3         1 RFM       0.172300
     20 C20         -3.8770   -22.5360    27.9320 cc         1 RFM      -0.135300
     21 C21         -2.7650   -23.2500    27.5860 cd         1 RFM      -0.223000
     22 S22         -1.7460   -22.3720    26.5150 ss         1 RFM       0.185000
     23 C23         -2.8170   -21.0220    26.5180 cd         1 RFM      -0.240000
     24 C24         -3.9010   -21.2480    27.3120 cc         1 RFM      -0.115000
     25 C25         -8.5100   -22.8780    27.3400 c3         1 RFM       0.010600
     26 N26         -9.6580   -22.0920    27.7050 na         1 RFM       0.065600
     27 C27        -10.5070   -22.2640    28.7540 ca         1 RFM      -0.057200
     28 C28        -10.6270   -23.2400    29.7470 ca         1 RFM      -0.111000
     29 C29        -11.6520   -23.0610    30.6560 ca         1 RFM      -0.076000
     30 C30        -12.5300   -21.9540    30.5880 ca         1 RFM      -0.140000
     31 C31        -12.4050   -20.9910    29.6070 ca         1 RFM      -0.027000
     32 C32        -11.3680   -21.1570    28.6790 ca         1 RFM       0.015400
     33 N33        -10.9810   -20.3890    27.6050 nc         1 RFM      -0.216400
     34 N34         -9.9610   -20.9540    27.0440 nd         1 RFM      -0.156400
     35 H1          -6.6390   -25.8930    28.4360 ha         1 RFM       0.128000
     36 H2          -6.4730   -27.7100    26.7730 ha         1 RFM       0.136500
     37 H3          -5.4810   -27.0000    23.2650 hn         1 RFM       0.155000
     38 H4          -4.0800   -28.1970    22.3130 ha         1 RFM       0.124000
     39 H5          -3.5510   -29.5500    20.3400 ha         1 RFM       0.120500
     40 H6          -4.8490   -31.6000    19.8450 ha         1 RFM       0.119000
     41 H7          -6.6860   -32.2920    21.3580 ha         1 RFM       0.120500
     42 H8          -7.2170   -30.9310    23.3560 ha         1 RFM       0.124000
     43 H9          -5.4420   -24.8290    23.7670 ha         1 RFM       0.136500
     44 H10         -5.6150   -23.0230    25.4400 ha         1 RFM       0.128000
     45 H11         -4.6750   -24.0050    29.2640 h1         1 RFM       0.072200
     46 H12         -5.2340   -22.3570    29.5870 h1         1 RFM       0.072200
     47 H13         -2.5030   -24.2510    27.8940 h4         1 RFM       0.151000
     48 H14         -2.5800   -20.1410    25.9420 h4         1 RFM       0.152000
     49 H15         -4.7000   -20.5320    27.4530 ha         1 RFM       0.147000
     50 H16         -8.7580   -23.9350    27.4300 h1         1 RFM       0.090700
     51 H17         -8.2820   -22.6770    26.2940 h1         1 RFM       0.090700
     52 H18         -9.9550   -24.0850    29.8050 ha         1 RFM       0.122000
     53 H19        -11.7890   -23.7870    31.4470 ha         1 RFM       0.115000
     54 H20        -13.3150   -21.8660    31.3270 ha         1 RFM       0.117000
     55 H21        -13.0730   -20.1420    29.5530 ha         1 RFM       0.133000
@<TRIPOS>BOND
     1     1     2 2   
     2     2     3 1   
     3     2    25 1   
     4     3     4 1   
     5     3    19 1   
     6     4     5 ar  
     7     4    18 ar  
     8     5     6 ar  
     9     5    35 1   
    10     6     7 ar  
    11     6    36 1   
    12     7     8 1   
    13     7    17 ar  
    14     8     9 1   
    15     8    37 1   
    16     9    10 1   
    17     9    16 2   
    18    10    11 ar  
    19    10    15 ar  
    20    11    12 ar  
    21    11    38 1   
    22    12    13 ar  
    23    12    39 1   
    24    13    14 ar  
    25    13    40 1   
    26    14    15 ar  
    27    14    41 1   
    28    15    42 1   
    29    17    18 ar  
    30    17    43 1   
    31    18    44 1   
    32    19    20 1   
    33    19    45 1   
    34    19    46 1   
    35    20    21 2   
    36    20    24 1   
    37    21    22 1   
    38    21    47 1   
    39    22    23 1   
    40    23    24 2   
    41    23    48 1   
    42    24    49 1   
    43    25    26 1   
    44    25    50 1   
    45    25    51 1   
    46    26    27 1   
    47    26    34 1   
    48    27    28 ar  
    49    27    32 ar  
    50    28    29 ar  
    51    28    52 1   
    52    29    30 ar  
    53    29    53 1   
    54    30    31 ar  
    55    30    54 1   
    56    31    32 ar  
    57    31    55 1   
    58    32    33 1   
    59    33    34 2   
@<TRIPOS>SUBSTRUCTURE
     1 RFM         1 TEMP              0 ****  ****    0 ROOT
