@<TRIPOS>MOLECULE
RFM
   55    59     1     0     0
SMALL
No Charge or Current Charge


@<TRIPOS>ATOM
      1 O01         -6.9510   -20.9470    28.2830 o          1 RFM      -0.575100
      2 C02         -7.0120   -21.9820    27.6250 c          1 RFM       0.588100
      3 N03         -6.0760   -23.0350    27.8210 n          1 RFM      -0.241400
      4 C04         -5.9240   -24.1670    26.9400 ca         1 RFM      -0.100000
      5 C05         -6.0720   -25.4730    27.4480 ca         1 RFM      -0.078000
      6 C06         -6.0770   -26.5840    26.5860 ca         1 RFM      -0.147000
      7 C07         -5.9750   -26.4080    25.1900 ca         1 RFM      -0.009000
      8 N08         -5.9800   -27.4810    24.2570 ns         1 RFM      -0.145000
      9 C09         -5.8870   -28.8600    24.4150 c          1 RFM       0.620700
     10 C10         -5.9710   -29.6780    23.1360 ca         1 RFM      -0.157600
     11 C11         -6.1440   -29.0770    21.8630 ca         1 RFM      -0.070000
     12 C12         -6.2170   -29.8680    20.7030 ca         1 RFM      -0.117000
     13 C13         -6.1200   -31.2650    20.7900 ca         1 RFM      -0.083000
     14 C14         -5.9500   -31.8740    22.0420 ca         1 RFM      -0.117000
     15 C15         -5.8760   -31.0890    23.2060 ca         1 RFM      -0.070000
     16 O16         -5.7370   -29.4030    25.5040 o          1 RFM      -0.579100
     17 C17         -5.9010   -25.1000    24.6800 ca         1 RFM      -0.147000
     18 C18         -5.8980   -23.9900    25.5420 ca         1 RFM      -0.078000
     19 C19         -5.1670   -22.9540    28.9900 c3         1 RFM       0.172300
     20 C20         -3.8650   -22.2880    28.6170 cc         1 RFM      -0.135300
     21 C21         -2.8350   -22.8650    27.9140 cd         1 RFM      -0.223000
     22 S22         -1.4820   -21.7480    27.6720 ss         1 RFM       0.185000
     23 C23         -2.3610   -20.4890    28.5510 cd         1 RFM      -0.240000
     24 C24         -3.5830   -20.9420    28.9710 cc         1 RFM      -0.115000
     25 C25         -8.1550   -22.2000    26.6180 c3         1 RFM       0.010600
     26 N26         -9.4450   -21.6850    27.0950 na         1 RFM       0.065600
     27 C27        -10.1910   -22.2450    28.0840 ca         1 RFM      -0.057200
     28 C28         -9.9820   -23.3680    28.8980 ca         1 RFM      -0.111000
     29 C29        -10.9820   -23.6690    29.8460 ca         1 RFM      -0.076000
     30 C30        -12.1370   -22.8540    29.9460 ca         1 RFM      -0.140000
     31 C31        -12.3010   -21.7320    29.1010 ca         1 RFM      -0.027000
     32 C32        -11.2930   -21.4530    28.1660 ca         1 RFM       0.015400
     33 N33        -11.2210   -20.4210    27.2330 nc         1 RFM      -0.216400
     34 N34        -10.0720   -20.5740    26.5680 nd         1 RFM      -0.156400
     35 H1          -6.1940   -25.6370    28.5160 ha         1 RFM       0.128000
     36 H2          -6.1850   -27.5710    27.0250 ha         1 RFM       0.136500
     37 H3          -6.0720   -27.1810    23.2970 hn         1 RFM       0.155000
     38 H4          -6.2240   -27.9990    21.7490 ha         1 RFM       0.124000
     39 H5          -6.3490   -29.3950    19.7320 ha         1 RFM       0.120500
     40 H6          -6.1770   -31.8740    19.8900 ha         1 RFM       0.119000
     41 H7          -5.8750   -32.9570    22.1130 ha         1 RFM       0.120500
     42 H8          -5.7430   -31.5850    24.1650 ha         1 RFM       0.124000
     43 H9          -5.8480   -24.9370    23.6050 ha         1 RFM       0.136500
     44 H10         -5.8390   -22.9900    25.1170 ha         1 RFM       0.128000
     45 H11         -4.9500   -23.9620    29.3630 h1         1 RFM       0.072200
     46 H12         -5.6490   -22.4090    29.8130 h1         1 RFM       0.072200
     47 H13         -2.7830   -23.8710    27.5140 h4         1 RFM       0.151000
     48 H14         -1.9190   -19.5100    28.6940 h4         1 RFM       0.152000
     49 H15         -4.2910   -20.3310    29.5260 ha         1 RFM       0.147000
     50 H16         -8.2760   -23.2720    26.4310 h1         1 RFM       0.090700
     51 H17         -7.8820   -21.7100    25.6770 h1         1 RFM       0.090700
     52 H18         -9.0900   -23.9840    28.8080 ha         1 RFM       0.122000
     53 H19        -10.8670   -24.5300    30.5010 ha         1 RFM       0.115000
     54 H20        -12.9040   -23.0920    30.6790 ha         1 RFM       0.117000
     55 H21        -13.1840   -21.1020    29.1710 ha         1 RFM       0.133000
@<TRIPOS>BOND
     1     1     2 2   
     2     2     3 1   
     3     2    25 1   
     4     3     4 1   
     5     3    19 1   
     6     4     5 ar  
     7     4    18 ar  
     8     5     6 ar  
     9     5    35 1   
    10     6     7 ar  
    11     6    36 1   
    12     7     8 1   
    13     7    17 ar  
    14     8     9 1   
    15     8    37 1   
    16     9    10 1   
    17     9    16 2   
    18    10    11 ar  
    19    10    15 ar  
    20    11    12 ar  
    21    11    38 1   
    22    12    13 ar  
    23    12    39 1   
    24    13    14 ar  
    25    13    40 1   
    26    14    15 ar  
    27    14    41 1   
    28    15    42 1   
    29    17    18 ar  
    30    17    43 1   
    31    18    44 1   
    32    19    20 1   
    33    19    45 1   
    34    19    46 1   
    35    20    21 2   
    36    20    24 1   
    37    21    22 1   
    38    21    47 1   
    39    22    23 1   
    40    23    24 2   
    41    23    48 1   
    42    24    49 1   
    43    25    26 1   
    44    25    50 1   
    45    25    51 1   
    46    26    27 1   
    47    26    34 1   
    48    27    28 ar  
    49    27    32 ar  
    50    28    29 ar  
    51    28    52 1   
    52    29    30 ar  
    53    29    53 1   
    54    30    31 ar  
    55    30    54 1   
    56    31    32 ar  
    57    31    55 1   
    58    32    33 1   
    59    33    34 2   
@<TRIPOS>SUBSTRUCTURE
     1 RFM         1 TEMP              0 ****  ****    0 ROOT
