@<TRIPOS>MOLECULE
RFN
   45    46     1     0     0
SMALL
abcg2


@<TRIPOS>ATOM
      1 N1           0.7510    -0.6140    -0.5870 n          1 RFN      -0.272000
      2 C4           5.7540     0.1910    -1.0560 ca         1 RFN      -0.088500
      3 C5           4.8490     0.3140    -0.0010 ca         1 RFN      -0.067800
      4 C6           5.3200     0.7470     1.2400 ca         1 RFN      -0.088500
      5 C7           3.4240    -0.0130    -0.1940 cc         1 RFN       0.078800
      6 C8           2.7850     0.2750    -1.4300 cc         1 RFN      -0.285000
      7 C10          1.2990    -0.9130     0.6550 c          1 RFN       0.555200
      8 C13         -1.5160     0.2520    -0.2750 c3         1 RFN      -0.075400
      9 C15         -3.6940     1.3290     0.1860 c          1 RFN       0.624100
     10 C17         -3.4240    -0.1800    -1.8970 c3         1 RFN      -0.092100
     11 C1           6.6620     1.0440     1.4220 ca         1 RFN      -0.113000
     12 C2           7.5560     0.9100     0.3670 ca         1 RFN      -0.097000
     13 C3           7.0980     0.4810    -0.8720 ca         1 RFN      -0.113000
     14 C9           1.4750    -0.0340    -1.5760 cd         1 RFN      -0.037400
     15 C11          2.6900    -0.5950     0.8000 cd         1 RFN      -0.314200
     16 O1           0.6060    -1.4210     1.5370 o          1 RFN      -0.575000
     17 C12         -0.6620    -0.8950    -0.8110 c3         1 RFN       0.080000
     18 C14         -3.0340     0.0940    -0.4460 c3         1 RFN      -0.315000
     19 S1          -3.7020    -1.3280     0.5220 s6         1 RFN       1.057000
     20 C16         -2.8850    -1.3560     2.1020 c3         1 RFN      -0.314100
     21 O2          -5.1260    -1.0560     0.7230 o          1 RFN      -0.512000
     22 O3          -3.3410    -2.5600    -0.1830 o          1 RFN      -0.512000
     23 O4          -3.4400     1.6550     1.3310 o          1 RFN      -0.577100
     24 N2          -4.5090     2.0210    -0.6170 ns         1 RFN      -0.363400
     25 O5          -5.2270     3.0570    -0.1090 oh         1 RFN      -0.408100
     26 H4           5.4150    -0.1560    -2.0240 ha         1 RFN       0.117000
     27 H6           4.6300     0.8740     2.0640 ha         1 RFN       0.117000
     28 H8           3.3080     0.7520    -2.2450 ha         1 RFN       0.202000
     29 H13         -1.2790     0.4290     0.7730 hc         1 RFN       0.072200
     30 H13A        -1.2390     1.1660    -0.8100 hc         1 RFN       0.072200
     31 H17         -2.9390    -1.0770    -2.2730 hc         1 RFN       0.059700
     32 H17A        -4.4970    -0.3170    -2.0280 hc         1 RFN       0.059700
     33 H17B        -3.0940     0.6470    -2.5270 hc         1 RFN       0.059700
     34 H1           7.0080     1.3880     2.3870 ha         1 RFN       0.116000
     35 H2           8.6040     1.1400     0.5100 ha         1 RFN       0.115000
     36 H3           7.7880     0.3700    -1.6970 ha         1 RFN       0.116000
     37 H9           0.9410     0.1720    -2.4930 h4         1 RFN       0.198000
     38 H11          3.1420    -0.8570     1.7490 ha         1 RFN       0.213000
     39 H12         -0.8030    -1.0220    -1.8830 h1         1 RFN       0.076200
     40 H12A        -0.9010    -1.8460    -0.3430 h1         1 RFN       0.076200
     41 H16         -3.0740    -0.4320     2.6380 h1         1 RFN       0.121367
     42 H16A        -3.3220    -2.1990     2.6360 h1         1 RFN       0.121367
     43 H16B        -1.8170    -1.5180     1.9720 h1         1 RFN       0.121367
     44 HN2         -4.7980     1.7160    -1.5330 hn         1 RFN       0.349500
     45 HO5         -4.7130     3.8560    -0.2870 ho         1 RFN       0.444000
@<TRIPOS>BOND
     1     1     7 1   
     2     1    14 1   
     3     1    17 1   
     4     2     3 ar  
     5     2    13 ar  
     6     2    26 1   
     7     3     4 ar  
     8     3     5 1   
     9     4    11 ar  
    10     4    27 1   
    11     5     6 1   
    12     5    15 2   
    13     6    14 2   
    14     6    28 1   
    15     7    15 1   
    16     7    16 2   
    17     8    17 1   
    18     8    18 1   
    19     8    29 1   
    20     8    30 1   
    21     9    18 1   
    22     9    23 2   
    23     9    24 1   
    24    10    18 1   
    25    10    31 1   
    26    10    32 1   
    27    10    33 1   
    28    11    12 ar  
    29    11    34 1   
    30    12    13 ar  
    31    12    35 1   
    32    13    36 1   
    33    14    37 1   
    34    15    38 1   
    35    17    39 1   
    36    17    40 1   
    37    18    19 1   
    38    19    20 1   
    39    19    21 2   
    40    19    22 2   
    41    20    41 1   
    42    20    42 1   
    43    20    43 1   
    44    24    25 1   
    45    24    44 1   
    46    25    45 1   
@<TRIPOS>SUBSTRUCTURE
     1 RFN         1 TEMP              0 ****  ****    0 ROOT
