@<TRIPOS>MOLECULE
RFN
   45    46     1     0     0
SMALL
No Charge or Current Charge


@<TRIPOS>ATOM
      1 N1           0.7890    -0.5790    -0.5070 n          1 RFN      -0.272000
      2 C4           5.8300     0.5800    -1.0960 ca         1 RFN      -0.088500
      3 C5           4.9960     0.3020     0.0140 ca         1 RFN      -0.067800
      4 C6           5.5970     0.2820     1.3000 ca         1 RFN      -0.088500
      5 C7           3.5460     0.0630    -0.1840 cc         1 RFN       0.078800
      6 C8           2.8140     0.4200    -1.3680 cc         1 RFN      -0.285000
      7 C10          1.4360    -1.0050     0.6760 c          1 RFN       0.555200
      8 C13         -1.5670     0.2780    -0.2790 c3         1 RFN      -0.075400
      9 C15         -3.8340     1.3470     0.0830 c          1 RFN       0.624100
     10 C17         -3.4660    -0.2370    -1.9360 c3         1 RFN      -0.092100
     11 C1           6.9740     0.5180     1.4600 ca         1 RFN      -0.113000
     12 C2           7.7810     0.7810     0.3450 ca         1 RFN      -0.097000
     13 C3           7.2060     0.8130    -0.9330 ca         1 RFN      -0.113000
     14 C9           1.4780     0.1100    -1.5000 cd         1 RFN      -0.037400
     15 C11          2.8610    -0.6530     0.7800 cd         1 RFN      -0.314200
     16 O1           0.8640    -1.6260     1.5620 o          1 RFN      -0.575000
     17 C12         -0.6460    -0.8970    -0.6980 c3         1 RFN       0.080000
     18 C14         -3.1230     0.0730    -0.4330 c3         1 RFN      -0.315000
     19 S1          -3.7790    -1.2880     0.6020 s6         1 RFN       1.057000
     20 C16         -3.0420    -1.1310     2.2300 c3         1 RFN      -0.314100
     21 O2          -5.2250    -1.0860     0.7490 o          1 RFN      -0.512000
     22 O3          -3.3010    -2.5570     0.0400 o          1 RFN      -0.512000
     23 O4          -3.5650     1.8470     1.1670 o          1 RFN      -0.577100
     24 N2          -4.7430     1.9590    -0.7760 ns         1 RFN      -0.363400
     25 O5          -5.6190     3.0150    -0.3090 oh         1 RFN      -0.408100
     26 H4           5.4290     0.5930    -2.1050 ha         1 RFN       0.117000
     27 H6           5.0080     0.1180     2.1970 ha         1 RFN       0.117000
     28 H8           3.3080     0.9690    -2.1620 ha         1 RFN       0.202000
     29 H13         -1.3240     0.5400     0.7590 hc         1 RFN       0.072200
     30 H13A        -1.2770     1.1570    -0.8700 hc         1 RFN       0.072200
     31 H17         -2.9800    -1.1580    -2.2800 hc         1 RFN       0.059700
     32 H17A        -4.5440    -0.3820    -2.0880 hc         1 RFN       0.059700
     33 H17B        -3.1290     0.5740    -2.5950 hc         1 RFN       0.059700
     34 H1           7.4130     0.5030     2.4550 ha         1 RFN       0.116000
     35 H2           8.8460     0.9630     0.4710 ha         1 RFN       0.115000
     36 H3           7.8290     1.0160    -1.8020 ha         1 RFN       0.116000
     37 H9           0.8730     0.3730    -2.3650 h4         1 RFN       0.198000
     38 H11          3.3200    -1.0380     1.6780 ha         1 RFN       0.213000
     39 H12         -0.8070    -1.1330    -1.7570 h1         1 RFN       0.076200
     40 H12A        -0.8960    -1.8010    -0.1310 h1         1 RFN       0.076200
     41 H16         -3.3170    -0.1570     2.6450 h1         1 RFN       0.121367
     42 H16A        -3.4490    -1.9400     2.8440 h1         1 RFN       0.121367
     43 H16B        -1.9580    -1.2350     2.1260 h1         1 RFN       0.121367
     44 HN2         -5.0420     1.4690    -1.6170 hn         1 RFN       0.349500
     45 HO5         -5.4960     3.7300    -0.9760 ho         1 RFN       0.444000
@<TRIPOS>BOND
     1     1     7 1   
     2     1    14 1   
     3     1    17 1   
     4     2     3 ar  
     5     2    13 ar  
     6     2    26 1   
     7     3     4 ar  
     8     3     5 1   
     9     4    11 ar  
    10     4    27 1   
    11     5     6 1   
    12     5    15 2   
    13     6    14 2   
    14     6    28 1   
    15     7    15 1   
    16     7    16 2   
    17     8    17 1   
    18     8    18 1   
    19     8    29 1   
    20     8    30 1   
    21     9    18 1   
    22     9    23 2   
    23     9    24 1   
    24    10    18 1   
    25    10    31 1   
    26    10    32 1   
    27    10    33 1   
    28    11    12 ar  
    29    11    34 1   
    30    12    13 ar  
    31    12    35 1   
    32    13    36 1   
    33    14    37 1   
    34    15    38 1   
    35    17    39 1   
    36    17    40 1   
    37    18    19 1   
    38    19    20 1   
    39    19    21 2   
    40    19    22 2   
    41    20    41 1   
    42    20    42 1   
    43    20    43 1   
    44    24    25 1   
    45    24    44 1   
    46    25    45 1   
@<TRIPOS>SUBSTRUCTURE
     1 RFN         1 TEMP              0 ****  ****    0 ROOT
