@<TRIPOS>MOLECULE
RFO
   25    26     1     0     0
SMALL
No Charge or Current Charge


@<TRIPOS>ATOM
      1 C01         21.1810    67.1340    71.7750 c3         1 RFO       0.141900
      2 C03         23.5940    66.8720    71.9150 c3         1 RFO       0.081600
      3 C04         24.9350    67.5320    72.3450 c          1 RFO       0.615100
      4 C07         26.2030    65.4910    71.5850 cc         1 RFO      -0.128400
      5 C08         27.5190    65.0840    71.5460 cd         1 RFO      -0.190200
      6 C09         28.3310    66.1550    72.1010 ca         1 RFO      -0.095800
      7 C10         29.7180    66.2450    72.2870 ca         1 RFO       0.163000
      8 C11         30.2360    67.4240    72.8580 ca         1 RFO      -0.120000
      9 C12         29.3700    68.4800    73.2290 ca         1 RFO      -0.089000
     10 C13         27.9750    68.3690    73.0330 ca         1 RFO      -0.098000
     11 C14         27.4740    67.1850    72.4610 ca         1 RFO      -0.068000
     12 N06         26.1300    66.7800    72.1420 n          1 RFO      -0.108600
     13 O02         22.4390    67.7140    72.1620 os         1 RFO      -0.428000
     14 O05         24.9570    68.6570    72.8400 o          1 RFO      -0.509100
     15 H1          20.3580    67.8270    71.9920 h1         1 RFO       0.037700
     16 H2          21.1660    66.9130    70.7000 h1         1 RFO       0.037700
     17 H3          20.9950    66.2020    72.3240 h1         1 RFO       0.037700
     18 H4          23.6720    66.6360    70.8460 h1         1 RFO       0.047700
     19 H5          23.5010    65.9270    72.4650 h1         1 RFO       0.047700
     20 H6          25.2950    64.9870    71.2690 h4         1 RFO       0.215000
     21 H7          27.8780    64.1300    71.1660 ha         1 RFO       0.217000
     22 H8          31.3070    67.5210    73.0140 ha         1 RFO       0.130000
     23 H9          29.7810    69.3860    73.6690 ha         1 RFO       0.121000
     24 H10         27.3230    69.1890    73.3230 ha         1 RFO       0.149000
     25 Cl15        30.7880    64.9260    71.8230 cl         1 RFO      -0.208000
@<TRIPOS>BOND
     1     1    13 1   
     2     1    15 1   
     3     1    16 1   
     4     1    17 1   
     5     2     3 1   
     6     2    13 1   
     7     2    18 1   
     8     2    19 1   
     9     3    12 1   
    10     3    14 2   
    11     4     5 2   
    12     4    12 1   
    13     4    20 1   
    14     5     6 1   
    15     5    21 1   
    16     6     7 ar  
    17     6    11 ar  
    18     7     8 ar  
    19     7    25 1   
    20     8     9 ar  
    21     8    22 1   
    22     9    10 ar  
    23     9    23 1   
    24    10    11 ar  
    25    10    24 1   
    26    11    12 1   
@<TRIPOS>SUBSTRUCTURE
     1 RFO         1 TEMP              0 ****  ****    0 ROOT
