@<TRIPOS>MOLECULE
RFO
   25    26     1     0     0
SMALL
abcg2


@<TRIPOS>ATOM
      1 C01         21.3390    67.1270    71.8110 c3         1 RFO       0.141900
      2 C03         23.6600    66.8570    71.9150 c3         1 RFO       0.081600
      3 C04         24.9510    67.5430    72.3230 c          1 RFO       0.615100
      4 C07         26.1710    65.5100    71.5600 cc         1 RFO      -0.128400
      5 C08         27.4530    65.0830    71.5250 cd         1 RFO      -0.190200
      6 C09         28.2710    66.1290    72.0790 ca         1 RFO      -0.095800
      7 C10         29.6390    66.2650    72.3050 ca         1 RFO       0.163000
      8 C11         30.1440    67.4220    72.8710 ca         1 RFO      -0.120000
      9 C12         29.2730    68.4610    73.2190 ca         1 RFO      -0.089000
     10 C13         27.9010    68.3700    73.0130 ca         1 RFO      -0.098000
     11 C14         27.4170    67.1970    72.4430 ca         1 RFO      -0.068000
     12 N06         26.1080    66.7990    72.1160 n          1 RFO      -0.108600
     13 O02         22.5820    67.7090    72.1870 os         1 RFO      -0.428000
     14 O05         24.9860    68.6570    72.7990 o          1 RFO      -0.509100
     15 H1          20.5640    67.8530    72.0490 h1         1 RFO       0.037700
     16 H2          21.3170    66.9090    70.7370 h1         1 RFO       0.037700
     17 H3          21.1540    66.2010    72.3650 h1         1 RFO       0.037700
     18 H4          23.7080    66.6070    70.8460 h1         1 RFO       0.047700
     19 H5          23.5690    65.9110    72.4680 h1         1 RFO       0.047700
     20 H6          25.2790    65.0070    71.2330 h4         1 RFO       0.215000
     21 H7          27.7940    64.1330    71.1490 ha         1 RFO       0.217000
     22 H8          31.2070    67.5210    73.0430 ha         1 RFO       0.130000
     23 H9          29.6820    69.3600    73.6600 ha         1 RFO       0.121000
     24 H10         27.2420    69.1770    73.2840 ha         1 RFO       0.149000
     25 CL15        30.7160    64.9580    71.8680 cl         1 RFO      -0.208000
@<TRIPOS>BOND
     1     1    13 1   
     2     1    15 1   
     3     1    16 1   
     4     1    17 1   
     5     2     3 1   
     6     2    13 1   
     7     2    18 1   
     8     2    19 1   
     9     3    12 1   
    10     3    14 2   
    11     4     5 2   
    12     4    12 1   
    13     4    20 1   
    14     5     6 1   
    15     5    21 1   
    16     6     7 ar  
    17     6    11 ar  
    18     7     8 ar  
    19     7    25 1   
    20     8     9 ar  
    21     8    22 1   
    22     9    10 ar  
    23     9    23 1   
    24    10    11 ar  
    25    10    24 1   
    26    11    12 1   
@<TRIPOS>SUBSTRUCTURE
     1 RFO         1 TEMP              0 ****  ****    0 ROOT
