@<TRIPOS>MOLECULE
RFP
  117   121     1     0     0
SMALL
abcg2


@<TRIPOS>ATOM
      1 C1          48.5980    97.5250    24.7890 ca         1 RFP       0.081100
      2 C2          48.3630    96.5020    25.6860 ca         1 RFP      -0.041000
      3 C3          49.3960    95.5860    26.0010 ca         1 RFP      -0.170900
      4 C4          50.6650    95.7660    25.4460 ca         1 RFP       0.177100
      5 C5          52.1960    97.0590    23.9470 ca         1 RFP      -0.351600
      6 C6          52.3450    98.0640    22.9950 ca         1 RFP       0.249100
      7 C7          51.3540    98.9740    22.6570 ca         1 RFP      -0.195300
      8 C8          50.1340    98.8040    23.2980 ca         1 RFP       0.263100
      9 C9          49.8840    97.7440    24.2490 ca         1 RFP      -0.110000
     10 C10         50.9330    96.8520    24.5860 ca         1 RFP       0.012000
     11 C11         53.4430    96.3840    23.9970 c          1 RFP       0.556700
     12 C12         54.3520    97.0350    22.9450 c5         1 RFP       0.304000
     13 C13         55.5960    97.6480    23.5420 c3         1 RFP      -0.080100
     14 C14         51.5490   100.0650    21.6490 c3         1 RFP      -0.019800
     15 C15         46.2720    97.2140    26.7880 c          1 RFP       0.596300
     16 C16         44.9440    96.7070    27.2300 ce         1 RFP      -0.179400
     17 C17         44.3180    95.6230    26.7270 cf         1 RFP      -0.128000
     18 C18         44.7210    94.7090    25.6690 cf         1 RFP      -0.209000
     19 C19         44.2150    93.4720    25.6020 c2         1 RFP      -0.162200
     20 C20         44.6820    92.3290    24.7480 c3         1 RFP      -0.028500
     21 C21         45.6790    92.7320    23.6590 c3         1 RFP       0.189300
     22 C22         46.3080    91.5270    22.9400 c3         1 RFP      -0.091700
     23 C23         47.3710    91.9160    21.8960 c3         1 RFP       0.174300
     24 C24         48.5100    92.8150    22.4210 c3         1 RFP      -0.102700
     25 C25         49.5130    93.1330    21.3000 c3         1 RFP       0.178300
     26 C26         50.4890    94.2790    21.6180 c3         1 RFP      -0.048700
     27 C27         51.7300    94.2300    20.7060 c3         1 RFP       0.213500
     28 C28         52.6720    95.3670    20.9850 c2         1 RFP      -0.283200
     29 C29         53.8390    95.1580    21.5790 c2         1 RFP      -0.037900
     30 C30         44.2980    97.5290    28.3070 c3         1 RFP      -0.043900
     31 C31         45.2660    91.2820    25.7070 c3         1 RFP      -0.096100
     32 C32         45.2700    90.6050    22.3020 c3         1 RFP      -0.082100
     33 C33         49.1810    92.2030    23.6480 c3         1 RFP      -0.086100
     34 C34         49.7310    95.5990    21.4980 c3         1 RFP      -0.092100
     35 C36         51.0340    90.1700    19.6980 c3         1 RFP      -0.157100
     36 C39         48.5720    90.9590    29.2240 c6         1 RFP       0.158300
     37 C40         48.9990    92.2780    28.6080 c6         1 RFP       0.182300
     38 C41         46.6760    93.0180    28.7960 c6         1 RFP       0.182300
     39 C42         46.3270    91.6720    29.3940 c6         1 RFP       0.158300
     40 C43         49.2150    94.4290    26.8780 ce         1 RFP       0.399800
     41 N1          47.0820    96.2840    26.1930 ns         1 RFP      -0.162000
     42 N2          48.0520    94.0150    27.2230 n2         1 RFP      -0.474400
     43 N3          47.8690    92.9240    27.9710 nh         1 RFP      -0.440700
     44 N4          47.4550    91.1330    30.1250 n3         1 RFP      -0.711600
     45 O1          47.5880    98.3380    24.3710 oh         1 RFP      -0.564100
     46 O2          49.1930    99.6690    22.9640 oh         1 RFP      -0.523100
     47 O3          53.5390    98.0720    22.3890 os         1 RFP      -0.330100
     48 O4          53.8360    95.4500    24.6920 o          1 RFP      -0.539100
     49 O5          54.7310    96.1340    21.9590 os         1 RFP      -0.338100
     50 O6          51.2840    94.2390    19.3700 os         1 RFP      -0.450000
     51 O7          50.2650    91.9450    21.0040 os         1 RFP      -0.456100
     52 O8          49.1020    91.4820    19.1440 o          1 RFP      -0.504000
     53 O9          46.7060    92.5230    20.8020 oh         1 RFP      -0.686000
     54 O10         45.0070    93.6020    22.7710 oh         1 RFP      -0.673000
     55 O11         46.6050    98.3720    26.9690 o          1 RFP      -0.564100
     56 O12         51.5780    94.8370    25.7440 oh         1 RFP      -0.589100
     57 H131        56.1910    98.1310    22.7670 hc         1 RFP       0.068033
     58 H132        55.3360    98.3920    24.2940 hc         1 RFP       0.068033
     59 H133        56.2020    96.8780    24.0180 hc         1 RFP       0.068033
     60 H141        50.8380    99.9780    20.8260 hc         1 RFP       0.049033
     61 H142        51.4060   101.0490    22.0970 hc         1 RFP       0.049033
     62 H143        52.5490   100.0410    21.2230 hc         1 RFP       0.049033
     63 H17C        43.3710    95.3660    27.1950 ha         1 RFP       0.169000
     64 H18C        45.4710    95.0260    24.9580 ha         1 RFP       0.196000
     65 H19C        43.4440    93.2010    26.3210 ha         1 RFP       0.159000
     66 H20C        43.8000    91.8890    24.2680 hc         1 RFP       0.070700
     67 H211        46.5010    93.2660    24.1650 h1         1 RFP       0.031700
     68 H22C        46.8470    90.9470    23.6930 hc         1 RFP       0.056700
     69 H23C        47.8120    90.9610    21.5770 h1         1 RFP       0.033700
     70 H24C        48.0720    93.7760    22.7110 hc         1 RFP       0.068700
     71 H25C        48.9710    93.4390    20.4040 h1         1 RFP       0.078700
     72 H26C        50.8690    94.1860    22.6410 hc         1 RFP       0.067700
     73 H27C        52.2680    93.2940    20.9170 h1         1 RFP       0.043700
     74 H28C        52.3550    96.3650    20.7030 ha         1 RFP       0.203000
     75 H29C        54.1880    94.1550    21.8100 h4         1 RFP       0.198000
     76 H301        43.3590    97.0810    28.6260 hc         1 RFP       0.048033
     77 H302        44.9420    97.6260    29.1830 hc         1 RFP       0.048033
     78 H303        44.0830    98.5410    27.9590 hc         1 RFP       0.048033
     79 H311        45.4180    90.3200    25.2210 hc         1 RFP       0.039367
     80 H312        46.2200    91.6150    26.1210 hc         1 RFP       0.039367
     81 H313        44.5910    91.1120    26.5470 hc         1 RFP       0.039367
     82 H321        45.7580    89.8310    21.7080 hc         1 RFP       0.039033
     83 H322        44.6690    90.0940    23.0540 hc         1 RFP       0.039033
     84 H323        44.5870    91.1420    21.6440 hc         1 RFP       0.039033
     85 H331        50.0640    92.7640    23.9550 hc         1 RFP       0.041367
     86 H332        48.5080    92.2000    24.5040 hc         1 RFP       0.041367
     87 H333        49.4920    91.1720    23.4700 hc         1 RFP       0.041367
     88 H341        50.3790    96.4520    21.6860 hc         1 RFP       0.043033
     89 H342        49.3020    95.7250    20.5030 hc         1 RFP       0.043033
     90 H343        48.9190    95.6630    22.2210 hc         1 RFP       0.043033
     91 H361        50.8450    89.6330    18.7740 hc         1 RFP       0.069033
     92 H362        52.0440    90.5810    19.6730 hc         1 RFP       0.069033
     93 H363        50.9940    89.4690    20.5320 hc         1 RFP       0.069033
     94 H371        51.8070    93.8400    17.4570 h1         1 RFP       0.031033
     95 H372        53.0870    94.6330    18.3920 h1         1 RFP       0.031033
     96 H373        52.7290    92.9210    18.6610 h1         1 RFP       0.031033
     97 H381        46.2980    90.0710    31.4990 h1         1 RFP       0.033367
     98 H382        46.8110    89.0980    30.1110 h1         1 RFP       0.033367
     99 H383        47.9740    89.5410    31.3710 h1         1 RFP       0.033367
    100 H392        49.4220    90.5490    29.7730 h1         1 RFP       0.041200
    101 H401        49.4490    92.9340    29.3670 h1         1 RFP       0.052200
    102 H402        49.7660    92.0630    27.8620 h1         1 RFP       0.052200
    103 H411        45.8570    93.3770    28.1720 h1         1 RFP       0.052200
    104 H412        46.8260    93.7480    29.6030 h1         1 RFP       0.052200
    105 H421        45.4830    91.8030    30.0750 h1         1 RFP       0.041200
    106 H422        45.9970    90.9860    28.5950 h1         1 RFP       0.041200
    107 HC43        50.1240    93.9370    27.2000 h4         1 RFP       0.014800
    108 HN1         46.9360    95.3190    26.4880 hn         1 RFP       0.196000
    109 HO1         46.7700    97.8450    24.2210 ho         1 RFP       0.491000
    110 HO2         48.3420    99.4180    23.3800 ho         1 RFP       0.520000
    111 HO9         47.2330    92.3940    20.0050 ho         1 RFP       0.473000
    112 H10O        45.5000    93.6320    21.9420 ho         1 RFP       0.471000
    113 H12O        52.4930    95.0360    25.4150 ho         1 RFP       0.524000
    114 C35         50.0250    91.2610    19.8920 c          1 RFP       0.606100
    115 C37         52.2780    93.8960    18.4370 c3         1 RFP       0.144900
    116 H391        48.3370    90.2450    28.4160 h1         1 RFP       0.041200
    117 C38         47.1170    89.9010    30.7990 c3         1 RFP       0.151100
@<TRIPOS>BOND
     1     1     2 ar  
     2     1     9 ar  
     3     1    45 1   
     4     2     3 ar  
     5     2    41 1   
     6     3     4 ar  
     7     3    40 1   
     8     4    10 ar  
     9     4    56 1   
    10     5     6 ar  
    11     5    10 ar  
    12     5    11 1   
    13     6     7 ar  
    14     6    47 1   
    15     7     8 ar  
    16     7    14 1   
    17     8     9 ar  
    18     8    46 1   
    19     9    10 ar  
    20    11    12 1   
    21    11    48 2   
    22    12    13 1   
    23    12    47 1   
    24    12    49 1   
    25    13    57 1   
    26    13    58 1   
    27    13    59 1   
    28    14    60 1   
    29    14    61 1   
    30    14    62 1   
    31    15    16 1   
    32    15    41 1   
    33    15    55 2   
    34    16    17 2   
    35    16    30 1   
    36    17    18 1   
    37    17    63 1   
    38    18    19 2   
    39    18    64 1   
    40    19    20 1   
    41    19    65 1   
    42    20    21 1   
    43    20    31 1   
    44    20    66 1   
    45    21    22 1   
    46    21    54 1   
    47    21    67 1   
    48    22    23 1   
    49    22    32 1   
    50    22    68 1   
    51    23    24 1   
    52    23    53 1   
    53    23    69 1   
    54    24    25 1   
    55    24    33 1   
    56    24    70 1   
    57    25    26 1   
    58    25    51 1   
    59    25    71 1   
    60    26    27 1   
    61    26    34 1   
    62    26    72 1   
    63    27    28 1   
    64    27    50 1   
    65    27    73 1   
    66    28    29 2   
    67    28    74 1   
    68    29    49 1   
    69    29    75 1   
    70    30    76 1   
    71    30    77 1   
    72    30    78 1   
    73    31    79 1   
    74    31    80 1   
    75    31    81 1   
    76    32    82 1   
    77    32    83 1   
    78    32    84 1   
    79    33    85 1   
    80    33    86 1   
    81    33    87 1   
    82    34    88 1   
    83    34    89 1   
    84    34    90 1   
    85    35    91 1   
    86    35    92 1   
    87    35    93 1   
    88    35   114 1   
    89    36    37 1   
    90    36    44 1   
    91    36   100 1   
    92    36   116 1   
    93    37    43 1   
    94    37   101 1   
    95    37   102 1   
    96    38    39 1   
    97    38    43 1   
    98    38   103 1   
    99    38   104 1   
   100    39    44 1   
   101    39   105 1   
   102    39   106 1   
   103    40    42 2   
   104    40   107 1   
   105    41   108 1   
   106    42    43 1   
   107    44   117 1   
   108    45   109 1   
   109    46   110 1   
   110    50   115 1   
   111    51   114 1   
   112    52   114 2   
   113    53   111 1   
   114    54   112 1   
   115    56   113 1   
   116    94   115 1   
   117    95   115 1   
   118    96   115 1   
   119    97   117 1   
   120    98   117 1   
   121    99   117 1   
@<TRIPOS>SUBSTRUCTURE
     1 RFP         1 TEMP              0 ****  ****    0 ROOT
