@<TRIPOS>MOLECULE
RFP
  117   121     1     0     0
SMALL
No Charge or Current Charge


@<TRIPOS>ATOM
      1 C1          48.7400    97.8010    24.9030 ca         1 RFP       0.081100
      2 C2          48.3320    96.6800    25.6740 ca         1 RFP      -0.041000
      3 C3          49.2510    95.6220    25.8970 ca         1 RFP      -0.170900
      4 C4          50.5580    95.7040    25.3680 ca         1 RFP       0.177100
      5 C5          52.2360    96.8740    23.8610 ca         1 RFP      -0.351600
      6 C6          52.5550    97.9490    23.0410 ca         1 RFP       0.249100
      7 C7          51.6820    99.0160    22.8520 ca         1 RFP      -0.195300
      8 C8          50.4310    98.9670    23.4860 ca         1 RFP       0.263100
      9 C9          50.0430    97.8630    24.3140 ca         1 RFP      -0.110000
     10 C10         50.9670    96.7920    24.5320 ca         1 RFP       0.012000
     11 C11         53.3740    95.9180    23.7560 c          1 RFP       0.556700
     12 C12         54.3940    96.6750    22.8390 c5         1 RFP       0.304000
     13 C13         55.6230    97.1170    23.6590 c3         1 RFP      -0.080100
     14 C14         52.0590   100.1870    21.9340 c3         1 RFP      -0.019800
     15 C15         45.9660    97.3550    26.5110 c          1 RFP       0.596300
     16 C16         44.6370    96.7120    26.8580 ce         1 RFP      -0.179400
     17 C17         44.2350    95.4260    26.5730 cf         1 RFP      -0.128000
     18 C18         44.8970    94.3750    25.7990 cf         1 RFP      -0.209000
     19 C19         44.4680    93.0890    25.7840 c2         1 RFP      -0.162200
     20 C20         45.0850    91.9000    25.0470 c3         1 RFP      -0.028500
     21 C21         45.9720    92.2930    23.8150 c3         1 RFP       0.189300
     22 C22         46.6860    91.1190    23.0650 c3         1 RFP      -0.091700
     23 C23         47.6320    91.6030    21.9140 c3         1 RFP       0.174300
     24 C24         48.7310    92.6490    22.3090 c3         1 RFP      -0.102700
     25 C25         49.6080    93.1210    21.0850 c3         1 RFP       0.178300
     26 C26         50.5280    94.3580    21.3570 c3         1 RFP      -0.048700
     27 C27         51.5730    94.6150    20.2260 c3         1 RFP       0.213500
     28 C28         52.6880    95.5220    20.7110 c2         1 RFP      -0.283200
     29 C29         53.8910    95.0870    21.1290 c2         1 RFP      -0.037900
     30 C30         43.6830    97.6300    27.6210 c3         1 RFP      -0.043900
     31 C31         45.8540    91.0440    26.0810 c3         1 RFP      -0.096100
     32 C32         45.7060    90.0200    22.5600 c3         1 RFP      -0.082100
     33 C33         49.5970    92.1490    23.5050 c3         1 RFP      -0.086100
     34 C34         49.6830    95.6290    21.6680 c3         1 RFP      -0.092100
     35 C36         51.0350    90.0840    19.4020 c3         1 RFP      -0.157100
     36 C39         48.0700    90.9880    29.2990 c6         1 RFP       0.158300
     37 C40         48.7690    92.3250    28.9020 c6         1 RFP       0.182300
     38 C41         46.6960    93.5550    29.5920 c6         1 RFP       0.182300
     39 C42         46.0390    92.1900    29.9530 c6         1 RFP       0.158300
     40 C43         48.9140    94.4030    26.7300 ce         1 RFP       0.399800
     41 N1          46.9900    96.5000    26.1490 ns         1 RFP      -0.162000
     42 N2          47.9920    94.4020    27.6520 n2         1 RFP      -0.474400
     43 N3          47.7800    93.4090    28.5760 nh         1 RFP      -0.440700
     44 N4          47.0410    91.1630    30.3680 n3         1 RFP      -0.711600
     45 O1          47.8410    98.8100    24.6780 oh         1 RFP      -0.564100
     46 O2          49.5790   100.0020    23.2510 oh         1 RFP      -0.523100
     47 O3          53.7470    97.8770    22.3560 os         1 RFP      -0.330100
     48 O4          53.4260    94.7780    24.2010 o          1 RFP      -0.539100
     49 O5          54.8740    95.8690    21.7070 os         1 RFP      -0.338100
     50 O6          50.9120    95.2400    19.1110 os         1 RFP      -0.450000
     51 O7          50.4480    92.0180    20.6770 os         1 RFP      -0.456100
     52 O8          48.9570    91.2880    19.0810 o          1 RFP      -0.504000
     53 O9          46.8350    92.1420    20.8510 oh         1 RFP      -0.686000
     54 O10         45.1970    93.0060    22.8500 oh         1 RFP      -0.673000
     55 O11         46.1320    98.5670    26.5840 o          1 RFP      -0.564100
     56 O12         51.4080    94.6970    25.7180 oh         1 RFP      -0.589100
     57 H131        56.3340    97.6680    23.0340 hc         1 RFP       0.068033
     58 H132        55.3310    97.7670    24.4920 hc         1 RFP       0.068033
     59 H133        56.1460    96.2490    24.0790 hc         1 RFP       0.068033
     60 H141        51.4960   100.1420    20.9950 hc         1 RFP       0.049033
     61 H142        51.8400   101.1510    22.4090 hc         1 RFP       0.049033
     62 H143        53.1250   100.1990    21.6790 hc         1 RFP       0.049033
     63 H17C        43.2490    95.1380    26.9460 ha         1 RFP       0.169000
     64 H18C        45.7450    94.6390    25.1710 ha         1 RFP       0.196000
     65 H19C        43.5990    92.8200    26.3870 ha         1 RFP       0.159000
     66 H20C        44.2570    91.2870    24.6730 hc         1 RFP       0.070700
     67 H211        46.7610    92.9480    24.2010 h1         1 RFP       0.031700
     68 H22C        47.3310    90.6110    23.7890 hc         1 RFP       0.056700
     69 H23C        48.1510    90.7050    21.5540 h1         1 RFP       0.033700
     70 H24C        48.1960    93.5370    22.6570 hc         1 RFP       0.068700
     71 H25C        48.9470    93.4310    20.2640 h1         1 RFP       0.078700
     72 H26C        51.1260    94.1450    22.2470 hc         1 RFP       0.067700
     73 H27C        52.0210    93.6620    19.9140 h1         1 RFP       0.043700
     74 H28C        52.4250    96.5770    20.7140 ha         1 RFP       0.203000
     75 H29C        54.1610    94.0290    21.0950 h4         1 RFP       0.198000
     76 H301        42.8220    97.0910    28.0340 hc         1 RFP       0.048033
     77 H302        44.1870    98.1180    28.4640 hc         1 RFP       0.048033
     78 H303        43.2910    98.4190    26.9680 hc         1 RFP       0.048033
     79 H311        46.1560    90.0770    25.6640 hc         1 RFP       0.039367
     80 H312        46.7510    91.5720    26.4250 hc         1 RFP       0.039367
     81 H313        45.2230    90.8360    26.9530 hc         1 RFP       0.039367
     82 H321        46.2530    89.2350    22.0240 hc         1 RFP       0.039033
     83 H322        45.1830    89.5400    23.3950 hc         1 RFP       0.039033
     84 H323        44.9520    90.4330    21.8790 hc         1 RFP       0.039033
     85 H331        50.3540    92.8800    23.8000 hc         1 RFP       0.041367
     86 H332        48.9870    91.9750    24.3980 hc         1 RFP       0.041367
     87 H333        50.1090    91.2120    23.2550 hc         1 RFP       0.041367
     88 H341        50.3100    96.5240    21.7150 hc         1 RFP       0.043033
     89 H342        48.9260    95.7960    20.8930 hc         1 RFP       0.043033
     90 H343        49.1690    95.5400    22.6310 hc         1 RFP       0.043033
     91 H361        50.7120    89.4010    18.6090 hc         1 RFP       0.069033
     92 H362        52.0010    90.5480    19.1760 hc         1 RFP       0.069033
     93 H363        51.2450    89.5540    20.3380 hc         1 RFP       0.069033
     94 H371        51.0990    95.7910    17.1030 h1         1 RFP       0.031033
     95 H372        52.5850    95.9570    18.0600 h1         1 RFP       0.031033
     96 H373        52.0150    94.3410    17.5700 h1         1 RFP       0.031033
     97 H381        45.7000    90.0440    31.5870 h1         1 RFP       0.033367
     98 H382        45.8740    89.4330    29.9240 h1         1 RFP       0.033367
     99 H383        47.1730    89.1720    31.1120 h1         1 RFP       0.033367
    100 H392        48.8420    90.2780    29.6290 h1         1 RFP       0.041200
    101 H401        49.4000    92.6530    29.7400 h1         1 RFP       0.052200
    102 H402        49.4400    92.1200    28.0590 h1         1 RFP       0.052200
    103 H411        45.9170    94.2360    29.2210 h1         1 RFP       0.052200
    104 H412        47.1100    94.0030    30.5070 h1         1 RFP       0.052200
    105 H421        45.3100    92.3580    30.7590 h1         1 RFP       0.041200
    106 H422        45.4730    91.8350    29.0800 h1         1 RFP       0.041200
    107 HC43        49.4310    93.4800    26.4650 h4         1 RFP       0.014800
    108 HN1         46.7560    95.5290    26.3100 hn         1 RFP       0.196000
    109 HO1         47.1570    98.7850    25.4030 ho         1 RFP       0.491000
    110 HO2         48.7530    99.7460    23.7380 ho         1 RFP       0.520000
    111 HO9         47.3080    91.9040    20.0170 ho         1 RFP       0.473000
    112 H10O        45.6530    92.7990    21.9910 ho         1 RFP       0.471000
    113 H12O        52.2120    94.7370    25.1350 ho         1 RFP       0.524000
    114 C35         50.0190    91.1800    19.6800 c          1 RFP       0.606100
    115 C37         51.6930    95.3360    17.9060 c3         1 RFP       0.144900
    116 H391        47.6060    90.5560    28.4010 h1         1 RFP       0.041200
    117 C38         46.4130    89.8860    30.7670 c3         1 RFP       0.151100
@<TRIPOS>BOND
     1     1     2 ar  
     2     1     9 ar  
     3     1    45 1   
     4     2     3 ar  
     5     2    41 1   
     6     3     4 ar  
     7     3    40 1   
     8     4    10 ar  
     9     4    56 1   
    10     5     6 ar  
    11     5    10 ar  
    12     5    11 1   
    13     6     7 ar  
    14     6    47 1   
    15     7     8 ar  
    16     7    14 1   
    17     8     9 ar  
    18     8    46 1   
    19     9    10 ar  
    20    11    12 1   
    21    11    48 2   
    22    12    13 1   
    23    12    47 1   
    24    12    49 1   
    25    13    57 1   
    26    13    58 1   
    27    13    59 1   
    28    14    60 1   
    29    14    61 1   
    30    14    62 1   
    31    15    16 1   
    32    15    41 1   
    33    15    55 2   
    34    16    17 2   
    35    16    30 1   
    36    17    18 1   
    37    17    63 1   
    38    18    19 2   
    39    18    64 1   
    40    19    20 1   
    41    19    65 1   
    42    20    21 1   
    43    20    31 1   
    44    20    66 1   
    45    21    22 1   
    46    21    54 1   
    47    21    67 1   
    48    22    23 1   
    49    22    32 1   
    50    22    68 1   
    51    23    24 1   
    52    23    53 1   
    53    23    69 1   
    54    24    25 1   
    55    24    33 1   
    56    24    70 1   
    57    25    26 1   
    58    25    51 1   
    59    25    71 1   
    60    26    27 1   
    61    26    34 1   
    62    26    72 1   
    63    27    28 1   
    64    27    50 1   
    65    27    73 1   
    66    28    29 2   
    67    28    74 1   
    68    29    49 1   
    69    29    75 1   
    70    30    76 1   
    71    30    77 1   
    72    30    78 1   
    73    31    79 1   
    74    31    80 1   
    75    31    81 1   
    76    32    82 1   
    77    32    83 1   
    78    32    84 1   
    79    33    85 1   
    80    33    86 1   
    81    33    87 1   
    82    34    88 1   
    83    34    89 1   
    84    34    90 1   
    85    35    91 1   
    86    35    92 1   
    87    35    93 1   
    88    35   114 1   
    89    36    37 1   
    90    36    44 1   
    91    36   100 1   
    92    36   116 1   
    93    37    43 1   
    94    37   101 1   
    95    37   102 1   
    96    38    39 1   
    97    38    43 1   
    98    38   103 1   
    99    38   104 1   
   100    39    44 1   
   101    39   105 1   
   102    39   106 1   
   103    40    42 2   
   104    40   107 1   
   105    41   108 1   
   106    42    43 1   
   107    44   117 1   
   108    45   109 1   
   109    46   110 1   
   110    50   115 1   
   111    51   114 1   
   112    52   114 2   
   113    53   111 1   
   114    54   112 1   
   115    56   113 1   
   116    94   115 1   
   117    95   115 1   
   118    96   115 1   
   119    97   117 1   
   120    98   117 1   
   121    99   117 1   
@<TRIPOS>SUBSTRUCTURE
     1 RFP         1 TEMP              0 ****  ****    0 ROOT
