@<TRIPOS>MOLECULE
RFR
   58    61     1     0     0
SMALL
abcg2


@<TRIPOS>ATOM
      1 N1         -22.1160     6.3620    29.3940 n3         1 RFR      -0.737600
      2 N3         -17.5970     3.3000    24.4450 nb         1 RFR      -0.650000
      3 C4         -21.7960     4.0340    28.7170 c6         1 RFR      -0.089400
      4 C5         -20.3870     4.1880    28.1370 c          1 RFR       0.605100
      5 C6         -19.1740     4.2440    26.0010 ca         1 RFR      -0.077000
      6 C7         -18.6800     3.2030    25.2550 ca         1 RFR       0.311900
      7 C8         -16.9800     4.4590    24.3830 ca         1 RFR       0.362900
      8 C10        -16.7170     6.8460    24.9850 ca         1 RFR      -0.068000
      9 C13        -20.8010     9.9240    25.6170 c3         1 RFR      -0.389100
     10 C15        -18.5400     5.5130    25.9310 ca         1 RFR       0.011000
     11 C17        -21.3920     2.3900    30.5680 ca         1 RFR      -0.086000
     12 C20        -21.9900     4.2830    32.5010 ca         1 RFR      -0.098000
     13 C21        -22.0520     4.6380    31.1530 ca         1 RFR      -0.064300
     14 C22        -22.4770     6.0320    30.7700 c6         1 RFR       0.207100
     15 C18        -21.3370     2.0640    31.9120 ca         1 RFR       0.128000
     16 C19        -21.6330     3.0020    32.8940 ca         1 RFR      -0.089000
     17 C2         -22.5510     7.6980    29.0290 c3         1 RFR       0.074800
     18 C1         -21.6770     8.8010    29.6140 c          1 RFR       0.566100
     19 O          -22.1140     9.9390    29.7770 o          1 RFR      -0.584100
     20 N          -20.4040     8.4470    29.8770 ns         1 RFR      -0.510900
     21 C          -19.4820     9.3220    30.5850 c3         1 RFR       0.078300
     22 C16        -21.7500     3.6820    30.1830 ca         1 RFR      -0.052300
     23 C3         -22.5910     5.3270    28.4850 c6         1 RFR       0.176800
     24 O1         -19.4020     4.4550    28.8100 o          1 RFR      -0.550100
     25 N2         -20.3390     4.0510    26.7830 ns         1 RFR      -0.177000
     26 C9         -17.3940     5.6080    25.0950 ca         1 RFR      -0.098000
     27 C14        -19.0020     6.6660    26.5960 ca         1 RFR      -0.130000
     28 C12        -18.3250     7.8560    26.4670 ca         1 RFR       0.271000
     29 C11        -17.1600     7.9460    25.6660 ca         1 RFR      -0.096000
     30 N4         -18.7670     8.9910    27.1980 nu         1 RFR      -0.887100
     31 S          -19.2910    10.3680    26.4350 s6         1 RFR       1.216100
     32 O2         -19.5880    11.3040    27.4920 o          1 RFR      -0.528500
     33 O3         -18.3140    10.7220    25.4350 o          1 RFR      -0.528500
     34 H2         -22.2970     3.2300    28.1720 hc         1 RFR       0.068700
     35 H3         -19.1690     2.2360    25.2980 h4         1 RFR       0.022100
     36 H4         -16.1070     4.5270    23.7410 h4         1 RFR       0.026100
     37 H5         -15.8330     6.9070    24.3630 ha         1 RFR       0.128000
     38 H6         -21.5180     9.6070    26.3710 h1         1 RFR       0.102367
     39 H7         -21.1550    10.8110    25.0930 h1         1 RFR       0.102367
     40 H8         -20.5880     9.1210    24.9140 h1         1 RFR       0.102367
     41 H9         -21.1550     1.6470    29.8170 ha         1 RFR       0.129000
     42 H10        -22.2200     5.0230    33.2580 ha         1 RFR       0.121000
     43 H11        -22.0120     6.7520    31.4460 h1         1 RFR       0.053700
     44 H12        -23.5680     6.1250    30.9100 h1         1 RFR       0.053700
     45 H13        -21.5840     2.7350    33.9400 ha         1 RFR       0.134000
     46 H14        -22.5020     7.8010    27.9430 h1         1 RFR       0.062700
     47 H15        -23.5860     7.9100    29.3320 h1         1 RFR       0.062700
     48 H16        -20.2100     7.4550    29.8270 hn         1 RFR       0.339500
     49 H17        -18.4910     8.8730    30.5590 h1         1 RFR       0.052700
     50 H18        -19.4430    10.2940    30.0980 h1         1 RFR       0.052700
     51 H19        -19.7850     9.4600    31.6250 h1         1 RFR       0.052700
     52 H20        -22.4590     5.6670    27.4590 h1         1 RFR       0.045700
     53 H21        -23.6620     5.1180    28.6320 h1         1 RFR       0.045700
     54 H22        -21.1570     3.6950    26.3120 hn         1 RFR       0.153000
     55 H23        -19.8920     6.6230    27.2070 ha         1 RFR       0.124000
     56 H24        -16.6360     8.8870    25.6050 ha         1 RFR       0.153000
     57 H25        -19.3980     8.7600    27.9670 hn         1 RFR       0.501000
     58 CL         -20.8840     0.4370    32.3840 cl         1 RFR      -0.204000
@<TRIPOS>BOND
     1     1    14 1   
     2     1    17 1   
     3     1    23 1   
     4     2     6 ar  
     5     2     7 ar  
     6     3     4 1   
     7     3    22 1   
     8     3    23 1   
     9     3    34 1   
    10     4    24 2   
    11     4    25 1   
    12     5     6 ar  
    13     5    10 ar  
    14     5    25 1   
    15     6    35 1   
    16     7    26 ar  
    17     7    36 1   
    18     8    26 ar  
    19     8    29 ar  
    20     8    37 1   
    21     9    31 1   
    22     9    38 1   
    23     9    39 1   
    24     9    40 1   
    25    10    26 ar  
    26    10    27 ar  
    27    11    15 ar  
    28    11    22 ar  
    29    11    41 1   
    30    12    13 ar  
    31    12    16 ar  
    32    12    42 1   
    33    13    14 1   
    34    13    22 ar  
    35    14    43 1   
    36    14    44 1   
    37    15    16 ar  
    38    15    58 1   
    39    16    45 1   
    40    17    18 1   
    41    17    46 1   
    42    17    47 1   
    43    18    19 2   
    44    18    20 1   
    45    20    21 1   
    46    20    48 1   
    47    21    49 1   
    48    21    50 1   
    49    21    51 1   
    50    23    52 1   
    51    23    53 1   
    52    25    54 1   
    53    27    28 ar  
    54    27    55 1   
    55    28    29 ar  
    56    28    30 1   
    57    29    56 1   
    58    30    31 1   
    59    30    57 1   
    60    31    32 2   
    61    31    33 2   
@<TRIPOS>SUBSTRUCTURE
     1 RFR         1 TEMP              0 ****  ****    0 ROOT
