@<TRIPOS>MOLECULE
RFR
   58    61     1     0     0
SMALL
No Charge or Current Charge


@<TRIPOS>ATOM
      1 N1         -22.2890     6.2210    29.5580 n3         1 RFR      -0.737600
      2 N3         -17.9410     3.1450    24.2180 nb         1 RFR      -0.650000
      3 C4         -21.7800     3.8890    28.9050 c6         1 RFR      -0.089400
      4 C5         -20.4210     4.1400    28.2200 c          1 RFR       0.605100
      5 C6         -19.3610     4.1580    25.9180 ca         1 RFR      -0.077000
      6 C7         -18.9500     3.0730    25.1150 ca         1 RFR       0.311900
      7 C8         -17.3040     4.3300    24.0860 ca         1 RFR       0.362900
      8 C10        -16.9680     6.6900    24.6230 ca         1 RFR      -0.068000
      9 C13        -19.3910    10.6880    24.9760 c3         1 RFR      -0.389100
     10 C15        -18.7100     5.4060    25.7540 ca         1 RFR       0.011000
     11 C17        -21.1420     2.2540    30.7600 ca         1 RFR      -0.086000
     12 C20        -21.7640     4.1500    32.7400 ca         1 RFR      -0.098000
     13 C21        -21.9300     4.4800    31.3810 ca         1 RFR      -0.064300
     14 C22        -22.4790     5.8610    30.9950 c6         1 RFR       0.207100
     15 C18        -20.9760     1.9350    32.1160 ca         1 RFR       0.128000
     16 C19        -21.2850     2.8800    33.1070 ca         1 RFR      -0.089000
     17 C2         -22.9250     7.5300    29.1950 c3         1 RFR       0.074800
     18 C1         -22.3050     8.8010    29.8340 c          1 RFR       0.566100
     19 O          -22.9500     9.8060    30.1060 o          1 RFR      -0.584100
     20 N          -20.9530     8.7040    30.0770 ns         1 RFR      -0.510900
     21 C          -20.1320     9.7500    30.6910 c3         1 RFR       0.078300
     22 C16        -21.6190     3.5260    30.3870 ca         1 RFR      -0.052300
     23 C3         -22.7050     5.1040    28.6790 c6         1 RFR       0.176800
     24 O1         -19.4050     4.4320    28.8440 o          1 RFR      -0.550100
     25 N2         -20.4150     3.9500    26.8470 ns         1 RFR      -0.177000
     26 C9         -17.6550     5.4790    24.8210 ca         1 RFR      -0.098000
     27 C14        -19.0900     6.5730    26.4570 ca         1 RFR      -0.130000
     28 C12        -18.4180     7.7910    26.2520 ca         1 RFR       0.271000
     29 C11        -17.3450     7.8370    25.3400 ca         1 RFR      -0.096000
     30 N4         -18.8440     8.9110    26.9690 nu         1 RFR      -0.887100
     31 S          -18.6940    10.5220    26.6050 s6         1 RFR       1.216100
     32 O2         -19.5650    11.2040    27.5620 o          1 RFR      -0.528500
     33 O3         -17.2610    10.8140    26.5610 o          1 RFR      -0.528500
     34 H2         -22.2690     3.0790    28.3480 hc         1 RFR       0.068700
     35 H3         -19.4370     2.1030    25.2080 h4         1 RFR       0.022100
     36 H4         -16.4940     4.3600    23.3580 h4         1 RFR       0.026100
     37 H5         -16.1460     6.7460    23.9120 ha         1 RFR       0.128000
     38 H6         -20.4260    10.3360    25.0220 h1         1 RFR       0.102367
     39 H7         -19.3430    11.7470    24.7070 h1         1 RFR       0.102367
     40 H8         -18.7940    10.0780    24.2910 h1         1 RFR       0.102367
     41 H9         -20.8960     1.5160    30.0010 ha         1 RFR       0.129000
     42 H10        -22.0080     4.8770    33.5120 ha         1 RFR       0.121000
     43 H11        -22.0020     6.6140    31.6390 h1         1 RFR       0.053700
     44 H12        -23.5510     5.8730    31.2430 h1         1 RFR       0.053700
     45 H13        -21.1570     2.6280    34.1560 ha         1 RFR       0.134000
     46 H14        -22.8470     7.6840    28.1110 h1         1 RFR       0.062700
     47 H15        -23.9940     7.5210    29.4450 h1         1 RFR       0.062700
     48 H16        -20.5460     7.7920    29.8890 hn         1 RFR       0.339500
     49 H17        -19.0700     9.4960    30.5820 h1         1 RFR       0.052700
     50 H18        -20.3250    10.7130    30.2000 h1         1 RFR       0.052700
     51 H19        -20.3770     9.8320    31.7580 h1         1 RFR       0.052700
     52 H20        -22.6670     5.4020    27.6210 h1         1 RFR       0.045700
     53 H21        -23.7450     4.8180    28.8970 h1         1 RFR       0.045700
     54 H22        -21.2870     3.6270    26.4460 hn         1 RFR       0.153000
     55 H23        -19.9190     6.5500    27.1560 ha         1 RFR       0.124000
     56 H24        -16.7930     8.7560    25.1730 ha         1 RFR       0.153000
     57 H25        -19.6900     8.8360    27.5150 hn         1 RFR       0.501000
     58 Cl         -20.3770     0.3450    32.5760 cl         1 RFR      -0.204000
@<TRIPOS>BOND
     1     1    14 1   
     2     1    17 1   
     3     1    23 1   
     4     2     6 ar  
     5     2     7 ar  
     6     3     4 1   
     7     3    22 1   
     8     3    23 1   
     9     3    34 1   
    10     4    24 2   
    11     4    25 1   
    12     5     6 ar  
    13     5    10 ar  
    14     5    25 1   
    15     6    35 1   
    16     7    26 ar  
    17     7    36 1   
    18     8    26 ar  
    19     8    29 ar  
    20     8    37 1   
    21     9    31 1   
    22     9    38 1   
    23     9    39 1   
    24     9    40 1   
    25    10    26 ar  
    26    10    27 ar  
    27    11    15 ar  
    28    11    22 ar  
    29    11    41 1   
    30    12    13 ar  
    31    12    16 ar  
    32    12    42 1   
    33    13    14 1   
    34    13    22 ar  
    35    14    43 1   
    36    14    44 1   
    37    15    16 ar  
    38    15    58 1   
    39    16    45 1   
    40    17    18 1   
    41    17    46 1   
    42    17    47 1   
    43    18    19 2   
    44    18    20 1   
    45    20    21 1   
    46    20    48 1   
    47    21    49 1   
    48    21    50 1   
    49    21    51 1   
    50    23    52 1   
    51    23    53 1   
    52    25    54 1   
    53    27    28 ar  
    54    27    55 1   
    55    28    29 ar  
    56    28    30 1   
    57    29    56 1   
    58    30    31 1   
    59    30    57 1   
    60    31    32 2   
    61    31    33 2   
@<TRIPOS>SUBSTRUCTURE
     1 RFR         1 TEMP              0 ****  ****    0 ROOT
