@<TRIPOS>MOLECULE
RFS
   44    47     1     0     0
SMALL
abcg2


@<TRIPOS>ATOM
      1 C10        133.6520   121.6720   123.9230 ca         1 RFS      -0.005900
      2 C17        136.6600   122.5730   120.6420 ca         1 RFS      -0.180000
      3 C20        134.0040   121.7310   120.0680 ca         1 RFS      -0.049000
      4 C21        134.2540   122.9510   120.7030 ca         1 RFS      -0.149000
      5 C01        135.9270   125.8510   125.8980 c6         1 RFS      -0.108400
      6 C02        136.6910   127.1910   125.8460 c6         1 RFS       0.147800
      7 C04        137.8410   126.6870   123.7720 c6         1 RFS       0.153800
      8 C05        136.6260   125.7690   123.4870 c6         1 RFS      -0.099700
      9 C06        136.3460   124.9180   124.7450 c6         1 RFS      -0.014400
     10 C07        135.3770   123.7830   124.5070 ca         1 RFS      -0.059300
     11 C08        135.8500   122.4760   124.3950 ca         1 RFS      -0.100000
     12 C09        135.0000   121.4140   124.1020 ca         1 RFS      -0.082500
     13 C11        133.1410   122.9580   124.0430 ca         1 RFS      -0.082500
     14 C12        134.0080   124.0010   124.3360 ca         1 RFS      -0.100000
     15 C14        136.9050   124.9450   122.2400 c3         1 RFS       0.171600
     16 C16        135.5540   123.3630   120.9990 ca         1 RFS       0.150100
     17 C18        136.3810   121.3700   120.0290 ca         1 RFS       0.087100
     18 C19        135.0920   120.9500   119.7510 ca         1 RFS       0.011100
     19 C23        136.4860   119.2860   119.2400 c5         1 RFS       0.368600
     20 N03        137.9890   127.0910   125.1760 n7         1 RFS      -0.844400
     21 O15        135.6610   124.5550   121.6480 os         1 RFS      -0.355100
     22 O22        135.1340   119.7380   119.0880 os         1 RFS      -0.346100
     23 O24        137.2800   120.4420   119.5600 os         1 RFS      -0.352100
     24 BR1        132.4700   120.2330   123.4650 br         1 RFS      -0.113100
     25 H2         132.9940   121.4140   119.8480 ha         1 RFS       0.138000
     26 H3         133.4320   123.5830   121.0070 ha         1 RFS       0.133000
     27 H4         134.8540   126.0490   125.8510 hc         1 RFS       0.050700
     28 H5         136.1140   125.3410   126.8470 hc         1 RFS       0.050700
     29 H6         136.8410   127.5820   126.8530 h1         1 RFS       0.056700
     30 H7         136.1020   127.9350   125.3020 h1         1 RFS       0.056700
     31 H8         138.7610   126.1760   123.4760 h1         1 RFS       0.051700
     32 H9         137.7540   127.5800   123.1450 h1         1 RFS       0.051700
     33 H10        135.7480   126.3880   123.2820 hc         1 RFS       0.075700
     34 H11        137.3010   124.4570   125.0160 hc         1 RFS       0.044700
     35 H12        136.9070   122.2810   124.5240 ha         1 RFS       0.114500
     36 H13        135.3890   120.4100   124.0050 ha         1 RFS       0.129500
     37 H14        132.0870   123.1470   123.8940 ha         1 RFS       0.129500
     38 H15        133.6070   125.0040   124.4040 ha         1 RFS       0.114500
     39 H16        137.4940   124.0650   122.5060 h1         1 RFS       0.042700
     40 H17        137.4750   125.5250   121.5070 h1         1 RFS       0.042700
     41 H18        136.5420   118.5740   120.0700 h2         1 RFS       0.066700
     42 H19        136.8350   118.8540   118.3050 h2         1 RFS       0.066700
     43 H20        138.5570   126.4060   125.6620 hn         1 RFS       0.405000
     44 H1         137.6790   122.8740   120.8310 ha         1 RFS       0.135000
@<TRIPOS>BOND
     1     1    12 ar  
     2     1    13 ar  
     3     1    24 1   
     4     2    16 ar  
     5     2    17 ar  
     6     2    44 1   
     7     3     4 ar  
     8     3    18 ar  
     9     3    25 1   
    10     4    16 ar  
    11     4    26 1   
    12     5     6 1   
    13     5     9 1   
    14     5    27 1   
    15     5    28 1   
    16     6    20 1   
    17     6    29 1   
    18     6    30 1   
    19     7     8 1   
    20     7    20 1   
    21     7    31 1   
    22     7    32 1   
    23     8     9 1   
    24     8    15 1   
    25     8    33 1   
    26     9    10 1   
    27     9    34 1   
    28    10    11 ar  
    29    10    14 ar  
    30    11    12 ar  
    31    11    35 1   
    32    12    36 1   
    33    13    14 ar  
    34    13    37 1   
    35    14    38 1   
    36    15    21 1   
    37    15    39 1   
    38    15    40 1   
    39    16    21 1   
    40    17    18 ar  
    41    17    23 1   
    42    18    22 1   
    43    19    22 1   
    44    19    23 1   
    45    19    41 1   
    46    19    42 1   
    47    20    43 1   
@<TRIPOS>SUBSTRUCTURE
     1 RFS         1 TEMP              0 ****  ****    0 ROOT
