@<TRIPOS>MOLECULE
RFS
   44    47     1     0     0
SMALL
No Charge or Current Charge


@<TRIPOS>ATOM
      1 C10        133.1170   121.9990   124.5820 ca         1 RFS      -0.005900
      2 C17        136.7750   122.4340   120.4160 ca         1 RFS      -0.180000
      3 C20        134.2380   121.2230   119.9950 ca         1 RFS      -0.049000
      4 C21        134.3680   122.3260   120.8660 ca         1 RFS      -0.149000
      5 C01        136.0170   126.0480   125.9650 c6         1 RFS      -0.108400
      6 C02        136.7850   127.3740   125.7210 c6         1 RFS       0.147800
      7 C04        137.8840   126.5710   123.6590 c6         1 RFS       0.153800
      8 C05        136.6600   125.6110   123.5180 c6         1 RFS      -0.099700
      9 C06        136.3120   124.9490   124.8930 c6         1 RFS      -0.014400
     10 C07        135.1720   123.9180   124.8150 ca         1 RFS      -0.059300
     11 C08        135.4340   122.5560   125.0680 ca         1 RFS      -0.100000
     12 C09        134.4110   121.5990   124.9510 ca         1 RFS      -0.082500
     13 C11        132.8410   123.3530   124.3330 ca         1 RFS      -0.082500
     14 C12        133.8650   124.3090   124.4480 ca         1 RFS      -0.100000
     15 C14        136.9270   124.5820   122.3750 c3         1 RFS       0.171600
     16 C16        135.6280   122.9310   121.0810 ca         1 RFS       0.150100
     17 C18        136.6120   121.3380   119.5600 ca         1 RFS       0.087100
     18 C19        135.3930   120.7550   119.3570 ca         1 RFS       0.011100
     19 C23        136.8920   119.6360   118.1760 c5         1 RFS       0.368600
     20 N03        138.0660   127.1250   125.0290 n7         1 RFS      -0.844400
     21 O15        135.6840   123.9970   121.9520 os         1 RFS      -0.355100
     22 O22        135.4540   119.7170   118.4840 os         1 RFS      -0.346100
     23 O24        137.5970   120.7440   118.8420 os         1 RFS      -0.352100
     24 Br1        131.7290   120.6960   124.4040 br         1 RFS      -0.113100
     25 H2         133.2740   120.7510   119.8230 ha         1 RFS       0.138000
     26 H3         133.4940   122.7130   121.3820 ha         1 RFS       0.133000
     27 H4         134.9450   126.2780   126.0100 hc         1 RFS       0.050700
     28 H5         136.2760   125.6520   126.9560 hc         1 RFS       0.050700
     29 H6         136.9620   127.8800   126.6820 h1         1 RFS       0.056700
     30 H7         136.1680   128.0480   125.1070 h1         1 RFS       0.056700
     31 H8         138.8090   126.0460   123.3760 h1         1 RFS       0.051700
     32 H9         137.7600   127.4000   122.9450 h1         1 RFS       0.051700
     33 H10        135.8010   126.2130   123.1930 hc         1 RFS       0.075700
     34 H11        137.2180   124.4190   125.2220 hc         1 RFS       0.044700
     35 H12        136.4350   122.2320   125.3430 ha         1 RFS       0.114500
     36 H13        134.6230   120.5500   125.1400 ha         1 RFS       0.129500
     37 H14        131.8400   123.6620   124.0430 ha         1 RFS       0.129500
     38 H15        133.6460   125.3520   124.2330 ha         1 RFS       0.114500
     39 H16        137.6190   123.8150   122.7460 h1         1 RFS       0.042700
     40 H17        137.4020   125.0970   121.5290 h1         1 RFS       0.042700
     41 H18        137.2870   118.6840   118.5490 h2         1 RFS       0.066700
     42 H19        137.0410   119.7050   117.0920 h2         1 RFS       0.066700
     43 H20        138.5820   126.4340   125.5880 hn         1 RFS       0.405000
     44 H1         137.7590   122.8720   120.5470 ha         1 RFS       0.135000
@<TRIPOS>BOND
     1     1    12 ar  
     2     1    13 ar  
     3     1    24 1   
     4     2    16 ar  
     5     2    17 ar  
     6     2    44 1   
     7     3     4 ar  
     8     3    18 ar  
     9     3    25 1   
    10     4    16 ar  
    11     4    26 1   
    12     5     6 1   
    13     5     9 1   
    14     5    27 1   
    15     5    28 1   
    16     6    20 1   
    17     6    29 1   
    18     6    30 1   
    19     7     8 1   
    20     7    20 1   
    21     7    31 1   
    22     7    32 1   
    23     8     9 1   
    24     8    15 1   
    25     8    33 1   
    26     9    10 1   
    27     9    34 1   
    28    10    11 ar  
    29    10    14 ar  
    30    11    12 ar  
    31    11    35 1   
    32    12    36 1   
    33    13    14 ar  
    34    13    37 1   
    35    14    38 1   
    36    15    21 1   
    37    15    39 1   
    38    15    40 1   
    39    16    21 1   
    40    17    18 ar  
    41    17    23 1   
    42    18    22 1   
    43    19    22 1   
    44    19    23 1   
    45    19    41 1   
    46    19    42 1   
    47    20    43 1   
@<TRIPOS>SUBSTRUCTURE
     1 RFS         1 TEMP              0 ****  ****    0 ROOT
