@<TRIPOS>MOLECULE
RFU
   41    45     1     0     0
SMALL
No Charge or Current Charge


@<TRIPOS>ATOM
      1 C02        -50.2670   -28.0490     4.3930 ca         1 RFU       0.186000
      2 C03        -49.7450   -28.4830     5.6280 ca         1 RFU      -0.175000
      3 C04        -48.4090   -28.8910     5.6450 ca         1 RFU       0.003800
      4 C06        -46.2800   -29.5820     6.3060 ca         1 RFU       0.195500
      5 C07        -46.2720   -29.3500     4.9290 cp         1 RFU      -0.234000
      6 C08        -45.0680   -29.5630     4.2260 ca         1 RFU       0.439900
      7 C10        -45.5290   -30.4790     1.9240 c5         1 RFU       0.221800
      8 C11        -44.6180   -30.3810     0.6640 c5         1 RFU      -0.100400
      9 C12        -44.1410   -28.8960     0.6550 c5         1 RFU       0.124700
     10 C14        -44.7930   -26.5040     0.1530 c5         1 RFU       0.059000
     11 C15        -46.1700   -25.8610    -0.1660 c5         1 RFU       0.143600
     12 C17        -46.4780   -28.1420    -0.3110 c          1 RFU       0.705100
     13 C19        -43.8470   -28.6950     2.1800 c5         1 RFU       0.211800
     14 C21        -44.0730   -30.1220     6.2330 ca         1 RFU       0.187900
     15 C23        -47.5970   -28.8890     4.5180 cp         1 RFU      -0.057000
     16 C24        -48.1060   -28.4240     3.2880 ca         1 RFU      -0.048000
     17 C25        -49.4560   -28.0120     3.2330 ca         1 RFU      -0.170000
     18 F01        -51.5530   -27.6420     4.3200 f          1 RFU      -0.183000
     19 N05        -47.5980   -29.3170     6.7030 na         1 RFU      -0.331300
     20 N09        -44.9380   -29.4650     2.8330 nh         1 RFU      -0.777300
     21 N13        -45.2090   -27.9090     0.2300 n          1 RFU      -0.445800
     22 N20        -43.9590   -29.9440     4.8950 nb         1 RFU      -0.307000
     23 N22        -45.1890   -29.9700     6.9840 nb         1 RFU      -0.245000
     24 O16        -47.0130   -26.9360    -0.6520 os         1 RFU      -0.420100
     25 H031       -50.3560   -28.4910     6.5260 ha         1 RFU       0.137000
     26 H102       -46.5780   -30.2550     1.6970 h1         1 RFU       0.070200
     27 H101       -45.4970   -31.4900     2.3540 h1         1 RFU       0.070200
     28 H112       -45.0980   -30.7120    -0.2610 hc         1 RFU       0.075200
     29 H111       -43.7510   -31.0390     0.7930 hc         1 RFU       0.075200
     30 H121       -43.2350   -28.7630     0.0470 h1         1 RFU       0.060700
     31 H141       -44.0720   -26.3450    -0.6590 h1         1 RFU       0.059200
     32 H142       -44.3730   -26.1170     1.0890 h1         1 RFU       0.059200
     33 H152       -46.1050   -25.0590    -0.9140 h1         1 RFU       0.071700
     34 H151       -46.6250   -25.4520     0.7460 h1         1 RFU       0.071700
     35 H192       -42.8650   -29.1180     2.4350 h1         1 RFU       0.067200
     36 H191       -43.8440   -27.6410     2.4820 h1         1 RFU       0.067200
     37 H211       -43.1730   -30.4320     6.7610 h5         1 RFU       0.046100
     38 H241       -47.4740   -28.3640     2.4080 ha         1 RFU       0.126000
     39 H251       -49.8750   -27.6530     2.2970 ha         1 RFU       0.136000
     40 H051       -47.9180   -29.4160     7.6590 hn         1 RFU       0.368000
     41 O18        -47.0360   -29.2090    -0.5030 o          1 RFU      -0.542000
@<TRIPOS>BOND
     1     1     2 ar  
     2     1    17 ar  
     3     1    18 1   
     4     2     3 ar  
     5     2    25 1   
     6     3    15 ar  
     7     3    19 1   
     8     4     5 ar  
     9     4    19 1   
    10     4    23 ar  
    11     5     6 ar  
    12     5    15 1   
    13     6    20 1   
    14     6    22 ar  
    15     7     8 1   
    16     7    20 1   
    17     7    26 1   
    18     7    27 1   
    19     8     9 1   
    20     8    28 1   
    21     8    29 1   
    22     9    13 1   
    23     9    21 1   
    24     9    30 1   
    25    10    11 1   
    26    10    21 1   
    27    10    31 1   
    28    10    32 1   
    29    11    24 1   
    30    11    33 1   
    31    11    34 1   
    32    12    21 1   
    33    12    24 1   
    34    12    41 2   
    35    13    20 1   
    36    13    35 1   
    37    13    36 1   
    38    14    22 ar  
    39    14    23 ar  
    40    14    37 1   
    41    15    16 ar  
    42    16    17 ar  
    43    16    38 1   
    44    17    39 1   
    45    19    40 1   
@<TRIPOS>SUBSTRUCTURE
     1 RFU         1 TEMP              0 ****  ****    0 ROOT
