@<TRIPOS>MOLECULE
RFU
   41    45     1     0     0
SMALL
abcg2


@<TRIPOS>ATOM
      1 C02        -50.7060   -29.4450     5.2460 ca         1 RFU       0.186000
      2 C03        -49.8600   -29.5840     6.3260 ca         1 RFU      -0.175000
      3 C04        -48.5010   -29.4740     6.0550 ca         1 RFU       0.003800
      4 C06        -46.2800   -29.3000     6.2890 ca         1 RFU       0.195500
      5 C07        -46.5310   -29.1810     4.9000 cp         1 RFU      -0.234000
      6 C08        -45.3620   -29.0080     4.1090 ca         1 RFU       0.439900
      7 C10        -46.3000   -29.6480     1.8780 c5         1 RFU       0.221800
      8 C11        -45.4880   -30.0580     0.6530 c5         1 RFU      -0.100400
      9 C12        -44.3680   -29.0190     0.5860 c5         1 RFU       0.124700
     10 C14        -43.6120   -26.8450    -0.4040 c5         1 RFU       0.059000
     11 C15        -44.3760   -25.6220    -0.9020 c5         1 RFU       0.143600
     12 C17        -45.8690   -27.3460    -0.6190 c          1 RFU       0.705100
     13 C19        -44.0240   -28.8310     2.0670 c5         1 RFU       0.211800
     14 C21        -44.1090   -28.9050     6.0580 ca         1 RFU       0.187900
     15 C23        -47.9800   -29.2560     4.7470 cp         1 RFU      -0.057000
     16 C24        -48.8990   -29.0950     3.7060 ca         1 RFU      -0.048000
     17 C25        -50.2620   -29.1960     3.9530 ca         1 RFU      -0.170000
     18 F01        -52.0460   -29.5360     5.4620 f          1 RFU      -0.183000
     19 N05        -47.4560   -29.5140     6.9500 na         1 RFU      -0.331300
     20 N09        -45.3050   -29.0250     2.7610 nh         1 RFU      -0.777300
     21 N13        -44.7060   -27.7410    -0.0450 n          1 RFU      -0.445800
     22 N20        -44.1740   -28.8150     4.7370 nb         1 RFU      -0.307000
     23 N22        -45.0990   -29.1830     6.9030 nb         1 RFU      -0.245000
     24 O16        -45.6900   -26.1350    -1.2210 os         1 RFU      -0.420100
     25 H031       -50.2400   -29.7520     7.3240 ha         1 RFU       0.137000
     26 H102       -47.0580   -28.9270     1.5810 h1         1 RFU       0.070200
     27 H101       -46.7770   -30.4930     2.3710 h1         1 RFU       0.070200
     28 H112       -46.0910   -30.1170    -0.2460 hc         1 RFU       0.075200
     29 H111       -45.0120   -31.0240     0.8240 hc         1 RFU       0.075200
     30 H121       -43.5040   -29.4110     0.0470 h1         1 RFU       0.060700
     31 H141       -42.9900   -27.3010    -1.1810 h1         1 RFU       0.059200
     32 H142       -42.9840   -26.6140     0.4560 h1         1 RFU       0.059200
     33 H152       -43.9520   -25.1790    -1.8000 h1         1 RFU       0.071700
     34 H151       -44.4860   -24.8630    -0.1270 h1         1 RFU       0.071700
     35 H192       -43.2970   -29.5840     2.3810 h1         1 RFU       0.067200
     36 H191       -43.6070   -27.8510     2.2880 h1         1 RFU       0.067200
     37 H211       -43.1300   -28.7430     6.4990 h5         1 RFU       0.046100
     38 H241       -48.5790   -28.8750     2.7020 ha         1 RFU       0.126000
     39 H251       -50.9820   -29.0730     3.1550 ha         1 RFU       0.136000
     40 H051       -47.5390   -29.5980     7.9510 hn         1 RFU       0.368000
     41 O18        -46.9520   -27.8980    -0.6510 o          1 RFU      -0.542000
@<TRIPOS>BOND
     1     1     2 ar  
     2     1    17 ar  
     3     1    18 1   
     4     2     3 ar  
     5     2    25 1   
     6     3    15 ar  
     7     3    19 1   
     8     4     5 ar  
     9     4    19 1   
    10     4    23 ar  
    11     5     6 ar  
    12     5    15 1   
    13     6    20 1   
    14     6    22 ar  
    15     7     8 1   
    16     7    20 1   
    17     7    26 1   
    18     7    27 1   
    19     8     9 1   
    20     8    28 1   
    21     8    29 1   
    22     9    13 1   
    23     9    21 1   
    24     9    30 1   
    25    10    11 1   
    26    10    21 1   
    27    10    31 1   
    28    10    32 1   
    29    11    24 1   
    30    11    33 1   
    31    11    34 1   
    32    12    21 1   
    33    12    24 1   
    34    12    41 2   
    35    13    20 1   
    36    13    35 1   
    37    13    36 1   
    38    14    22 ar  
    39    14    23 ar  
    40    14    37 1   
    41    15    16 ar  
    42    16    17 ar  
    43    16    38 1   
    44    17    39 1   
    45    19    40 1   
@<TRIPOS>SUBSTRUCTURE
     1 RFU         1 TEMP              0 ****  ****    0 ROOT
