@<TRIPOS>MOLECULE
RFV
   99   102     1     0     0
SMALL
abcg2


@<TRIPOS>ATOM
      1 C1           3.8470     0.1800    -0.1210 ca         1 RFV       0.183100
      2 C2           3.4800    -1.0360    -0.6500 ca         1 RFV      -0.108000
      3 C3           2.3520    -1.1570    -1.4710 ca         1 RFV      -0.108000
      4 C4           1.5510    -0.0870    -1.7630 ca         1 RFV       0.106100
      5 C5           1.0590     2.3370    -1.3840 ca         1 RFV      -0.250300
      6 C6           1.4510     3.5440    -0.8800 ca         1 RFV       0.188100
      7 C7           2.6220     3.7550    -0.1490 ca         1 RFV      -0.185300
      8 C8           3.3860     2.6290     0.0730 ca         1 RFV       0.194100
      9 C9           3.0430     1.3280    -0.4070 ca         1 RFV      -0.122000
     10 C10          1.8600     1.1870    -1.2050 ca         1 RFV       0.032000
     11 C11         -0.2300     2.5860    -2.1200 c5         1 RFV       0.187600
     12 C12         -0.6460     3.9630    -1.5280 c5         1 RFV       0.375000
     13 C13         -1.4020     4.8610    -2.4730 c3         1 RFV      -0.108100
     14 C14          3.0290     5.1030     0.3690 c3         1 RFV      -0.042800
     15 C15          4.0320    -2.8450     0.8380 c          1 RFV       0.610300
     16 C16          4.7810    -4.1370     0.9780 ce         1 RFV      -0.175400
     17 C17          4.1150    -5.2910     1.0890 cf         1 RFV      -0.137000
     18 C18          2.6640    -5.4530     0.9760 cf         1 RFV      -0.181000
     19 C19          1.9120    -4.8770     0.0370 c2         1 RFV      -0.211200
     20 C20          0.4210    -4.9530    -0.0580 c3         1 RFV      -0.067500
     21 C21         -0.1970    -3.6100     0.4160 c3         1 RFV       0.192300
     22 C22         -1.7320    -3.7060     0.5260 c3         1 RFV      -0.084700
     23 C23         -2.5230    -2.4750     0.0050 c3         1 RFV       0.180300
     24 C24         -2.6760    -1.2900     0.9790 c3         1 RFV      -0.046700
     25 C25         -3.8700    -0.4020     0.6170 c3         1 RFV       0.175300
     26 C26         -4.2180     0.6460     1.7130 c3         1 RFV      -0.066700
     27 C27         -4.2500     2.1050     1.2260 c3         1 RFV       0.230500
     28 C28         -2.8750     2.6240     0.9360 c2         1 RFV      -0.285200
     29 C29         -2.5340     3.2850    -0.1640 c2         1 RFV      -0.024900
     30 C30          6.2740    -4.0350     1.0440 c3         1 RFV      -0.046900
     31 C31          0.0320    -5.2910    -1.4980 c3         1 RFV      -0.086100
     32 C32         -2.2050    -4.1930     1.8920 c3         1 RFV      -0.073100
     33 C33         -1.3640    -0.5240     1.1000 c3         1 RFV      -0.096100
     34 C34         -5.5400     0.2260     2.3570 c3         1 RFV      -0.086100
     35 C36         -4.1790     0.6460    -2.9140 c3         1 RFV      -0.157100
     36 N1           4.2180    -2.1980    -0.3290 ns         1 RFV      -0.144000
     37 O1           4.9400     0.2010     0.6570 oh         1 RFV      -0.521100
     38 O2           4.5370     2.7250     0.7740 oh         1 RFV      -0.569100
     39 O3           0.5820     4.5520    -1.1610 os         1 RFV      -0.308100
     40 O4          -1.2240     1.5970    -2.0300 oh         1 RFV      -0.662000
     41 O5          -1.2840     3.8040    -0.2770 os         1 RFV      -0.390100
     42 O6          -4.8270     2.8740     2.2670 os         1 RFV      -0.452000
     43 O7          -3.6220     0.1600    -0.6830 os         1 RFV      -0.460100
     44 O8          -5.7810    -0.0030    -1.2560 o          1 RFV      -0.484000
     45 O9          -3.8250    -2.9010    -0.3540 oh         1 RFV      -0.667000
     46 O10          0.3330    -3.2320     1.6630 oh         1 RFV      -0.666000
     47 O11          3.3180    -2.4090     1.7300 o          1 RFV      -0.592100
     48 O12          0.5200    -0.2970    -2.6120 oh         1 RFV      -0.578100
     49 H1           2.1030    -2.1290    -1.8790 ha         1 RFV       0.129000
     50 H2          -0.0470     2.7050    -3.1930 h1         1 RFV       0.099700
     51 H3          -0.8090     5.0560    -3.3640 hc         1 RFV       0.062033
     52 H4          -2.3290     4.3890    -2.7980 hc         1 RFV       0.062033
     53 H5          -1.6490     5.8100    -1.9970 hc         1 RFV       0.062033
     54 H6           3.0850     5.1230     1.4600 hc         1 RFV       0.050033
     55 H7           4.0030     5.4060    -0.0210 hc         1 RFV       0.050033
     56 H8           2.3170     5.8710     0.0800 hc         1 RFV       0.050033
     57 H10          4.6890    -6.1900     1.2940 ha         1 RFV       0.181000
     58 H12          2.1930    -6.1100     1.7040 ha         1 RFV       0.187000
     59 H13          2.4010    -4.2780    -0.7300 ha         1 RFV       0.164000
     60 H14          0.0630    -5.7470     0.6080 hc         1 RFV       0.063700
     61 H15          0.0490    -2.8540    -0.3500 h1         1 RFV       0.030700
     62 H16         -2.0150    -4.4880    -0.1860 hc         1 RFV       0.035700
     63 H17         -1.9960    -2.1080    -0.8900 h1         1 RFV       0.033700
     64 H18         -2.9300    -1.6830     1.9700 hc         1 RFV       0.069700
     65 H19         -4.7410    -1.0460     0.5210 h1         1 RFV       0.089700
     66 H20         -3.4500     0.5960     2.4940 hc         1 RFV       0.063700
     67 H21         -4.8870     2.1870     0.3330 h1         1 RFV       0.039700
     68 H22         -2.1310     2.4890     1.7160 ha         1 RFV       0.197000
     69 H23         -3.2360     3.4650    -0.9760 h4         1 RFV       0.172000
     70 H24          6.5880    -3.3020     1.7900 hc         1 RFV       0.046700
     71 H25          6.7200    -4.9950     1.3010 hc         1 RFV       0.046700
     72 H26          6.7000    -3.7150     0.0900 hc         1 RFV       0.046700
     73 H27          0.5430    -6.1960    -1.8290 hc         1 RFV       0.035367
     74 H28         -1.0370    -5.4660    -1.6160 hc         1 RFV       0.035367
     75 H29          0.3150    -4.4860    -2.1810 hc         1 RFV       0.035367
     76 H30         -1.9700    -3.4940     2.6940 hc         1 RFV       0.039700
     77 H31         -3.2860    -4.3400     1.8840 hc         1 RFV       0.039700
     78 H32         -1.7500    -5.1500     2.1480 hc         1 RFV       0.039700
     79 H33         -1.0060    -0.1770     0.1290 hc         1 RFV       0.043700
     80 H34         -1.4530     0.3420     1.7540 hc         1 RFV       0.043700
     81 H35         -0.5850    -1.1550     1.5180 hc         1 RFV       0.043700
     82 H36         -5.4840    -0.8180     2.6710 hc         1 RFV       0.043700
     83 H37         -5.7790     0.8150     3.2390 hc         1 RFV       0.043700
     84 H38         -6.3660     0.3110     1.6490 hc         1 RFV       0.043700
     85 H39         -5.0050     0.5790    -3.6160 hc         1 RFV       0.067033
     86 H40         -3.8180     1.6740    -2.8960 hc         1 RFV       0.067033
     87 H41         -3.3560     0.0240    -3.2610 hc         1 RFV       0.067033
     88 H42         -4.4070     4.7820     1.5260 h1         1 RFV       0.028700
     89 H43         -5.9760     4.1090     1.0550 h1         1 RFV       0.028700
     90 H44         -5.7020     4.6380     2.7250 h1         1 RFV       0.028700
     91 H45          4.7510    -2.6500    -1.0580 hn         1 RFV       0.158000
     92 H46          5.0980     1.1010     0.9780 ho         1 RFV       0.491000
     93 H47          4.6360     3.5820     1.2080 ho         1 RFV       0.493000
     94 H48         -1.5060     1.4440    -1.1170 ho         1 RFV       0.487000
     95 H49         -3.7430    -3.5770    -1.0340 ho         1 RFV       0.442000
     96 H50          1.2810    -3.0690     1.5730 ho         1 RFV       0.474000
     97 H51         -0.2300     0.3080    -2.4460 ho         1 RFV       0.498000
     98 C35         -4.6330     0.2280    -1.5480 c          1 RFV       0.593100
     99 C37         -5.2390     4.1550     1.8650 c3         1 RFV       0.145900
@<TRIPOS>BOND
     1     1     2 ar  
     2     1     9 ar  
     3     1    37 1   
     4     2     3 ar  
     5     2    36 1   
     6     3     4 ar  
     7     3    49 1   
     8     4    10 ar  
     9     4    48 1   
    10     5     6 ar  
    11     5    10 ar  
    12     5    11 1   
    13     6     7 ar  
    14     6    39 1   
    15     7     8 ar  
    16     7    14 1   
    17     8     9 ar  
    18     8    38 1   
    19     9    10 ar  
    20    11    12 1   
    21    11    40 1   
    22    11    50 1   
    23    12    13 1   
    24    12    39 1   
    25    12    41 1   
    26    13    51 1   
    27    13    52 1   
    28    13    53 1   
    29    14    54 1   
    30    14    55 1   
    31    14    56 1   
    32    15    16 1   
    33    15    36 1   
    34    15    47 2   
    35    16    17 2   
    36    16    30 1   
    37    17    18 1   
    38    17    57 1   
    39    18    19 2   
    40    18    58 1   
    41    19    20 1   
    42    19    59 1   
    43    20    21 1   
    44    20    31 1   
    45    20    60 1   
    46    21    22 1   
    47    21    46 1   
    48    21    61 1   
    49    22    23 1   
    50    22    32 1   
    51    22    62 1   
    52    23    24 1   
    53    23    45 1   
    54    23    63 1   
    55    24    25 1   
    56    24    33 1   
    57    24    64 1   
    58    25    26 1   
    59    25    43 1   
    60    25    65 1   
    61    26    27 1   
    62    26    34 1   
    63    26    66 1   
    64    27    28 1   
    65    27    42 1   
    66    27    67 1   
    67    28    29 2   
    68    28    68 1   
    69    29    41 1   
    70    29    69 1   
    71    30    70 1   
    72    30    71 1   
    73    30    72 1   
    74    31    73 1   
    75    31    74 1   
    76    31    75 1   
    77    32    76 1   
    78    32    77 1   
    79    32    78 1   
    80    33    79 1   
    81    33    80 1   
    82    33    81 1   
    83    34    82 1   
    84    34    83 1   
    85    34    84 1   
    86    35    85 1   
    87    35    86 1   
    88    35    87 1   
    89    35    98 1   
    90    36    91 1   
    91    37    92 1   
    92    38    93 1   
    93    40    94 1   
    94    42    99 1   
    95    43    98 1   
    96    44    98 2   
    97    45    95 1   
    98    46    96 1   
    99    48    97 1   
   100    88    99 1   
   101    89    99 1   
   102    90    99 1   
@<TRIPOS>SUBSTRUCTURE
     1 RFV         1 TEMP              0 ****  ****    0 ROOT
