@<TRIPOS>MOLECULE
RFV
   99   102     1     0     0
SMALL
No Charge or Current Charge


@<TRIPOS>ATOM
      1 C1           4.1000     0.6320    -0.0200 ca         1 RFV       0.183100
      2 C2           3.7450    -0.6600    -0.4430 ca         1 RFV      -0.108000
      3 C3           2.6340    -0.8400    -1.2710 ca         1 RFV      -0.108000
      4 C4           1.8200     0.2340    -1.6190 ca         1 RFV       0.106100
      5 C5           1.2230     2.6520    -1.3280 ca         1 RFV      -0.250300
      6 C6           1.5640     3.9130    -0.8820 ca         1 RFV       0.188100
      7 C7           2.7530     4.1690    -0.1880 ca         1 RFV      -0.185300
      8 C8           3.5990     3.0770     0.0990 ca         1 RFV       0.194100
      9 C9           3.2770     1.7540    -0.3420 ca         1 RFV      -0.122000
     10 C10          2.0870     1.5400    -1.1100 ca         1 RFV       0.032000
     11 C11         -0.1080     2.7560    -2.0320 c5         1 RFV       0.187600
     12 C12         -0.5840     4.1720    -1.4640 c5         1 RFV       0.375000
     13 C13         -1.4460     5.0420    -2.4090 c3         1 RFV      -0.108100
     14 C14          3.0920     5.5930     0.2710 c3         1 RFV      -0.042800
     15 C15          3.8360    -2.9220     0.6030 c          1 RFV       0.610300
     16 C16          4.6460    -4.2030     0.6420 ce         1 RFV      -0.175400
     17 C17          4.0860    -5.4390     0.8710 cf         1 RFV      -0.137000
     18 C18          2.6610    -5.7590     0.9680 cf         1 RFV      -0.181000
     19 C19          1.7290    -5.3020     0.0960 c2         1 RFV      -0.211200
     20 C20          0.2210    -5.4820     0.1870 c3         1 RFV      -0.067500
     21 C21         -0.4700    -4.0870     0.4000 c3         1 RFV       0.192300
     22 C22         -2.0320    -4.1080     0.5740 c3         1 RFV      -0.084700
     23 C23         -2.7980    -2.8260     0.0610 c3         1 RFV       0.180300
     24 C24         -2.7870    -1.5160     0.9460 c3         1 RFV      -0.046700
     25 C25         -3.8830    -0.4700     0.5250 c3         1 RFV       0.175300
     26 C26         -4.1810     0.6270     1.6200 c3         1 RFV      -0.066700
     27 C27         -4.2460     2.1100     1.1080 c3         1 RFV       0.230500
     28 C28         -2.8710     2.7250     0.9070 c2         1 RFV      -0.285200
     29 C29         -2.4630     3.4580    -0.1370 c2         1 RFV      -0.024900
     30 C30          6.1560    -4.0650     0.4720 c3         1 RFV      -0.046900
     31 C31         -0.2640    -6.2440    -1.0710 c3         1 RFV      -0.086100
     32 C32         -2.4970    -4.5930     1.9780 c3         1 RFV      -0.073100
     33 C33         -1.3810    -0.8480     1.0210 c3         1 RFV      -0.096100
     34 C34         -5.4450     0.2040     2.4240 c3         1 RFV      -0.086100
     35 C36         -3.8860     0.8960    -2.9820 c3         1 RFV      -0.157100
     36 N1           4.4280    -1.8180     0.0090 ns         1 RFV      -0.144000
     37 O1           5.2140     0.7690     0.7550 oh         1 RFV      -0.521100
     38 O2           4.7420     3.3240     0.8160 oh         1 RFV      -0.569100
     39 O3           0.6510     4.8900    -1.1920 os         1 RFV      -0.308100
     40 O4          -0.9900     1.6800    -1.7180 oh         1 RFV      -0.662000
     41 O5          -1.1920     3.9940    -0.1350 os         1 RFV      -0.390100
     42 O6          -4.8940     2.9100     2.1160 os         1 RFV      -0.452000
     43 O7          -3.4980     0.1150    -0.7430 os         1 RFV      -0.460100
     44 O8          -5.6630     0.1230    -1.5400 o          1 RFV      -0.484000
     45 O9          -4.1570    -3.2300    -0.1750 oh         1 RFV      -0.667000
     46 O10          0.1380    -3.4920     1.5490 oh         1 RFV      -0.666000
     47 O11          2.7000    -2.8380     1.0570 o          1 RFV      -0.592100
     48 O12          0.7720    -0.0500    -2.4420 oh         1 RFV      -0.578100
     49 H1           2.3760    -1.8350    -1.6260 ha         1 RFV       0.129000
     50 H2           0.0490     2.8220    -3.1180 h1         1 RFV       0.099700
     51 H3          -0.8270     5.4900    -3.1950 hc         1 RFV       0.062033
     52 H4          -2.2190     4.4480    -2.9110 hc         1 RFV       0.062033
     53 H5          -1.9340     5.8570    -1.8630 hc         1 RFV       0.062033
     54 H6           3.1390     5.6560     1.3660 hc         1 RFV       0.050033
     55 H7           4.0570     5.9220    -0.1330 hc         1 RFV       0.050033
     56 H8           2.3480     6.3290    -0.0550 hc         1 RFV       0.050033
     57 H10          4.7590    -6.2940     0.9740 ha         1 RFV       0.181000
     58 H12          2.3540    -6.4050     1.7950 ha         1 RFV       0.187000
     59 H13          2.0490    -4.6880    -0.7470 ha         1 RFV       0.164000
     60 H14         -0.0080    -6.1110     1.0560 hc         1 RFV       0.063700
     61 H15         -0.2420    -3.4790    -0.4860 h1         1 RFV       0.030700
     62 H16         -2.3750    -4.8920    -0.1080 hc         1 RFV       0.035700
     63 H17         -2.3570    -2.5550    -0.9090 h1         1 RFV       0.033700
     64 H18         -3.0570    -1.8170     1.9640 hc         1 RFV       0.069700
     65 H19         -4.8200    -1.0270     0.4000 h1         1 RFV       0.089700
     66 H20         -3.3670     0.5980     2.3530 hc         1 RFV       0.063700
     67 H21         -4.8320     2.1520     0.1810 h1         1 RFV       0.039700
     68 H22         -2.1940     2.5700     1.7470 ha         1 RFV       0.197000
     69 H23         -3.1030     3.6760    -0.9940 h4         1 RFV       0.172000
     70 H24          6.5580    -3.2440     1.0790 hc         1 RFV       0.046700
     71 H25          6.6880    -4.9740     0.7770 hc         1 RFV       0.046700
     72 H26          6.4210    -3.8700    -0.5740 hc         1 RFV       0.046700
     73 H27          0.3600    -7.1290    -1.2440 hc         1 RFV       0.035367
     74 H28         -1.2950    -6.5960    -0.9590 hc         1 RFV       0.035367
     75 H29         -0.2050    -5.6070    -1.9610 hc         1 RFV       0.035367
     76 H30         -2.2200    -3.8790     2.7620 hc         1 RFV       0.039700
     77 H31         -3.5850    -4.7230     2.0100 hc         1 RFV       0.039700
     78 H32         -2.0430    -5.5600     2.2260 hc         1 RFV       0.039700
     79 H33         -0.7960    -1.0460     0.1150 hc         1 RFV       0.043700
     80 H34         -1.4450     0.2390     1.1310 hc         1 RFV       0.043700
     81 H35         -0.8260    -1.2110     1.8910 hc         1 RFV       0.043700
     82 H36         -5.3720    -0.8440     2.7390 hc         1 RFV       0.043700
     83 H37         -5.5650     0.8060     3.3320 hc         1 RFV       0.043700
     84 H38         -6.3490     0.3150     1.8130 hc         1 RFV       0.043700
     85 H39         -4.6210     0.9260    -3.7940 hc         1 RFV       0.067033
     86 H40         -3.4910     1.8960    -2.7810 hc         1 RFV       0.067033
     87 H41         -2.9890     0.3290    -3.2520 hc         1 RFV       0.067033
     88 H42         -4.4040     4.8480     1.4600 h1         1 RFV       0.028700
     89 H43         -5.9420     4.1990     0.8340 h1         1 RFV       0.028700
     90 H44         -5.8210     4.7390     2.5220 h1         1 RFV       0.028700
     91 H45          5.3970    -1.9070    -0.2650 hn         1 RFV       0.158000
     92 H46          5.2760     1.7390     0.9440 ho         1 RFV       0.491000
     93 H47          4.7790     4.2850     1.0090 ho         1 RFV       0.493000
     94 H48         -1.3910     1.9120    -0.8460 ho         1 RFV       0.487000
     95 H49         -4.1310    -3.9680    -0.8220 ho         1 RFV       0.442000
     96 H50          1.1020    -3.3770     1.3280 ho         1 RFV       0.474000
     97 H51          0.0640     0.6260    -2.2490 ho         1 RFV       0.498000
     98 C35         -4.4690     0.3390    -1.6920 c          1 RFV       0.593100
     99 C37         -5.2810     4.2370     1.7100 c3         1 RFV       0.145900
@<TRIPOS>BOND
     1     1     2 ar  
     2     1     9 ar  
     3     1    37 1   
     4     2     3 ar  
     5     2    36 1   
     6     3     4 ar  
     7     3    49 1   
     8     4    10 ar  
     9     4    48 1   
    10     5     6 ar  
    11     5    10 ar  
    12     5    11 1   
    13     6     7 ar  
    14     6    39 1   
    15     7     8 ar  
    16     7    14 1   
    17     8     9 ar  
    18     8    38 1   
    19     9    10 ar  
    20    11    12 1   
    21    11    40 1   
    22    11    50 1   
    23    12    13 1   
    24    12    39 1   
    25    12    41 1   
    26    13    51 1   
    27    13    52 1   
    28    13    53 1   
    29    14    54 1   
    30    14    55 1   
    31    14    56 1   
    32    15    16 1   
    33    15    36 1   
    34    15    47 2   
    35    16    17 2   
    36    16    30 1   
    37    17    18 1   
    38    17    57 1   
    39    18    19 2   
    40    18    58 1   
    41    19    20 1   
    42    19    59 1   
    43    20    21 1   
    44    20    31 1   
    45    20    60 1   
    46    21    22 1   
    47    21    46 1   
    48    21    61 1   
    49    22    23 1   
    50    22    32 1   
    51    22    62 1   
    52    23    24 1   
    53    23    45 1   
    54    23    63 1   
    55    24    25 1   
    56    24    33 1   
    57    24    64 1   
    58    25    26 1   
    59    25    43 1   
    60    25    65 1   
    61    26    27 1   
    62    26    34 1   
    63    26    66 1   
    64    27    28 1   
    65    27    42 1   
    66    27    67 1   
    67    28    29 2   
    68    28    68 1   
    69    29    41 1   
    70    29    69 1   
    71    30    70 1   
    72    30    71 1   
    73    30    72 1   
    74    31    73 1   
    75    31    74 1   
    76    31    75 1   
    77    32    76 1   
    78    32    77 1   
    79    32    78 1   
    80    33    79 1   
    81    33    80 1   
    82    33    81 1   
    83    34    82 1   
    84    34    83 1   
    85    34    84 1   
    86    35    85 1   
    87    35    86 1   
    88    35    87 1   
    89    35    98 1   
    90    36    91 1   
    91    37    92 1   
    92    38    93 1   
    93    40    94 1   
    94    42    99 1   
    95    43    98 1   
    96    44    98 2   
    97    45    95 1   
    98    46    96 1   
    99    48    97 1   
   100    88    99 1   
   101    89    99 1   
   102    90    99 1   
@<TRIPOS>SUBSTRUCTURE
     1 RFV         1 TEMP              0 ****  ****    0 ROOT
