@<TRIPOS>MOLECULE
RFX
   40    41     1     0     0
SMALL
No Charge or Current Charge


@<TRIPOS>ATOM
      1 F14         -4.7480    -2.5570     0.5640 f          1 RFX      -0.116667
      2 C12         -3.6230    -3.1010     0.0480 c3         1 RFX       0.362300
      3 F15         -3.2590    -4.1110     0.8720 f          1 RFX      -0.116667
      4 F13         -3.9640    -3.6700    -1.1310 f          1 RFX      -0.116667
      5 C9          -2.5190    -2.0500    -0.1080 ca         1 RFX      -0.242300
      6 C10         -1.6270    -1.7870     0.9530 ca         1 RFX      -0.022500
      7 C11         -0.6200    -0.8160     0.8150 ca         1 RFX      -0.181500
      8 C6          -0.4910    -0.0940    -0.3890 ca         1 RFX       0.180100
      9 C7          -1.3870    -0.3430    -1.4380 ca         1 RFX      -0.181500
     10 C8          -2.3950    -1.3120    -1.3040 ca         1 RFX      -0.022500
     11 O5           0.4730     0.8740    -0.5880 os         1 RFX      -0.342100
     12 C3           1.5490     1.1170     0.3410 c3         1 RFX       0.224600
     13 C2           2.2800     2.3970    -0.1210 c3         1 RFX      -0.074400
     14 C1           1.3920     3.6560    -0.0690 c3         1 RFX       0.158800
     15 N4           2.1660     4.8480    -0.4710 n7         1 RFX      -0.859400
     16 C22          1.4050     6.1110    -0.4900 c3         1 RFX       0.145100
     17 C16          2.4900    -0.0910     0.3680 ca         1 RFX      -0.128300
     18 C21          2.9230    -0.6980    -0.8300 ca         1 RFX      -0.092500
     19 C20          3.7870    -1.8060    -0.7940 ca         1 RFX      -0.110000
     20 C19          4.2280    -2.3150     0.4380 ca         1 RFX      -0.099000
     21 C18          3.8050    -1.7140     1.6350 ca         1 RFX      -0.110000
     22 C17          2.9410    -0.6060     1.6010 ca         1 RFX      -0.092500
     23 H10         -1.7120    -2.3300     1.8930 ha         1 RFX       0.128000
     24 H11          0.0450    -0.6390     1.6540 ha         1 RFX       0.130500
     25 H7          -1.2980     0.2190    -2.3640 ha         1 RFX       0.130500
     26 H8          -3.0800    -1.4830    -2.1340 ha         1 RFX       0.128000
     27 H3           1.1510     1.2990     1.3470 h1         1 RFX       0.048700
     28 H2           3.1550     2.5470     0.5230 hc         1 RFX       0.062700
     29 H2A          2.6540     2.2550    -1.1410 hc         1 RFX       0.062700
     30 H1           0.5320     3.5190    -0.7390 h1         1 RFX       0.035200
     31 H1A          1.0040     3.7800     0.9520 h1         1 RFX       0.035200
     32 H22          1.0100     6.3470     0.5080 h1         1 RFX       0.030033
     33 H22A         2.0460     6.9440    -0.8080 h1         1 RFX       0.030033
     34 H21          2.5880    -0.3130    -1.7910 ha         1 RFX       0.117000
     35 H20          4.1150    -2.2700    -1.7220 ha         1 RFX       0.115500
     36 H19          4.8970    -3.1730     0.4660 ha         1 RFX       0.115000
     37 H18          4.1470    -2.1070     2.5910 ha         1 RFX       0.115500
     38 H17          2.6220    -0.1490     2.5350 ha         1 RFX       0.117000
     39 H171         2.9510     4.9580     0.1840 hn         1 RFX       0.403000
     40 H181         0.5580     6.0480    -1.1880 h1         1 RFX       0.030033
@<TRIPOS>BOND
     1     1     2 1   
     2     2     3 1   
     3     2     4 1   
     4     2     5 1   
     5     5     6 ar  
     6     5    10 ar  
     7     6     7 ar  
     8     6    23 1   
     9     7     8 ar  
    10     7    24 1   
    11     8     9 ar  
    12     8    11 1   
    13     9    10 ar  
    14     9    25 1   
    15    10    26 1   
    16    11    12 1   
    17    12    13 1   
    18    12    17 1   
    19    12    27 1   
    20    13    14 1   
    21    13    28 1   
    22    13    29 1   
    23    14    15 1   
    24    14    30 1   
    25    14    31 1   
    26    15    16 1   
    27    15    39 1   
    28    16    32 1   
    29    16    33 1   
    30    16    40 1   
    31    17    18 ar  
    32    17    22 ar  
    33    18    19 ar  
    34    18    34 1   
    35    19    20 ar  
    36    19    35 1   
    37    20    21 ar  
    38    20    36 1   
    39    21    22 ar  
    40    21    37 1   
    41    22    38 1   
@<TRIPOS>SUBSTRUCTURE
     1 RFX         1 TEMP              0 ****  ****    0 ROOT
