@<TRIPOS>MOLECULE
RFX
   40    41     1     0     0
SMALL
abcg2


@<TRIPOS>ATOM
      1 F14         -4.8870    -2.1890    -0.0470 f          1 RFX      -0.116667
      2 C12         -3.7070    -2.8230     0.0500 c3         1 RFX       0.362300
      3 F15         -3.7100    -3.4700     1.2200 f          1 RFX      -0.116667
      4 F13         -3.7100    -3.7600    -0.9120 f          1 RFX      -0.116667
      5 C9          -2.5580    -1.8830    -0.0900 ca         1 RFX      -0.242300
      6 C10         -1.6030    -1.7420     0.9040 ca         1 RFX      -0.022500
      7 C11         -0.5400    -0.8620     0.7500 ca         1 RFX      -0.181500
      8 C6          -0.4310    -0.1050    -0.4140 ca         1 RFX       0.180100
      9 C7          -1.3920    -0.2510    -1.4190 ca         1 RFX      -0.181500
     10 C8          -2.4420    -1.1280    -1.2570 ca         1 RFX      -0.022500
     11 O5           0.5410     0.7860    -0.6640 os         1 RFX      -0.342100
     12 C3           1.5730     1.0070     0.2880 c3         1 RFX       0.224600
     13 C2           2.2700     2.3010    -0.1090 c3         1 RFX      -0.074400
     14 C1           1.3420     3.5090    -0.1130 c3         1 RFX       0.158800
     15 N4           2.0910     4.7260    -0.3510 n7         1 RFX      -0.859400
     16 C22          1.2420     5.8990    -0.3970 c3         1 RFX       0.145100
     17 C16          2.5440    -0.1490     0.3350 ca         1 RFX      -0.128300
     18 C21          2.9030    -0.8350    -0.8220 ca         1 RFX      -0.092500
     19 C20          3.8290    -1.8680    -0.7640 ca         1 RFX      -0.110000
     20 C19          4.4120    -2.2200     0.4470 ca         1 RFX      -0.099000
     21 C18          4.0630    -1.5340     1.6020 ca         1 RFX      -0.110000
     22 C17          3.1310    -0.5070     1.5440 ca         1 RFX      -0.092500
     23 H10         -1.6600    -2.3140     1.8200 ha         1 RFX       0.128000
     24 H11          0.1840    -0.7890     1.5480 ha         1 RFX       0.130500
     25 H7          -1.3090     0.3360    -2.3250 ha         1 RFX       0.130500
     26 H8          -3.1720    -1.2190    -2.0520 ha         1 RFX       0.128000
     27 H3           1.1310     1.1470     1.2840 h1         1 RFX       0.048700
     28 H2           3.0740     2.4630     0.6150 hc         1 RFX       0.062700
     29 H2A          2.7460     2.1860    -1.0870 hc         1 RFX       0.062700
     30 H1           0.6010     3.4060    -0.9100 h1         1 RFX       0.035200
     31 H1A          0.7750     3.5370     0.8330 h1         1 RFX       0.035200
     32 H22          0.6050     6.0270     0.4890 h1         1 RFX       0.030033
     33 H22A         1.8530     6.7950    -0.5010 h1         1 RFX       0.030033
     34 H21          2.4600    -0.5700    -1.7740 ha         1 RFX       0.117000
     35 H20          4.0950    -2.4000    -1.6680 ha         1 RFX       0.115500
     36 H19          5.1340    -3.0260     0.4890 ha         1 RFX       0.115000
     37 H18          4.5100    -1.8020     2.5510 ha         1 RFX       0.115500
     38 H17          2.8520     0.0180     2.4510 ha         1 RFX       0.117000
     39 H171         2.7720     4.8430     0.3880 hn         1 RFX       0.403000
     40 H181         0.5830     5.8460    -1.2660 h1         1 RFX       0.030033
@<TRIPOS>BOND
     1     1     2 1   
     2     2     3 1   
     3     2     4 1   
     4     2     5 1   
     5     5     6 ar  
     6     5    10 ar  
     7     6     7 ar  
     8     6    23 1   
     9     7     8 ar  
    10     7    24 1   
    11     8     9 ar  
    12     8    11 1   
    13     9    10 ar  
    14     9    25 1   
    15    10    26 1   
    16    11    12 1   
    17    12    13 1   
    18    12    17 1   
    19    12    27 1   
    20    13    14 1   
    21    13    28 1   
    22    13    29 1   
    23    14    15 1   
    24    14    30 1   
    25    14    31 1   
    26    15    16 1   
    27    15    39 1   
    28    16    32 1   
    29    16    33 1   
    30    16    40 1   
    31    17    18 ar  
    32    17    22 ar  
    33    18    19 ar  
    34    18    34 1   
    35    19    20 ar  
    36    19    35 1   
    37    20    21 ar  
    38    20    36 1   
    39    21    22 ar  
    40    21    37 1   
    41    22    38 1   
@<TRIPOS>SUBSTRUCTURE
     1 RFX         1 TEMP              0 ****  ****    0 ROOT
