@<TRIPOS>MOLECULE
RFY
   44    47     1     0     0
SMALL
No Charge or Current Charge


@<TRIPOS>ATOM
      1 C10        134.9800   120.8730   123.7890 ca         1 RFY       0.204000
      2 C17        134.3770   122.5540   120.4040 ca         1 RFY      -0.127000
      3 C20        136.2290   123.0820   118.3210 ca         1 RFY      -0.059000
      4 C21        136.1870   123.9130   119.4630 ca         1 RFY      -0.202000
      5 C01        136.2060   125.4320   125.9270 c6         1 RFY      -0.108400
      6 C02        136.1900   126.9800   126.0270 c6         1 RFY       0.147800
      7 C04        136.6220   127.3220   123.6170 c6         1 RFY       0.153800
      8 C05        135.9580   125.9220   123.4190 c6         1 RFY      -0.100700
      9 C06        136.4870   124.9040   124.4830 c6         1 RFY      -0.014400
     10 C07        135.9550   123.4740   124.2840 ca         1 RFY      -0.056300
     11 C08        134.5790   123.1860   124.4250 ca         1 RFY      -0.103000
     12 C09        134.0950   121.8890   124.1800 ca         1 RFY      -0.078000
     13 C11        136.3490   121.1460   123.6520 ca         1 RFY      -0.078000
     14 C12        136.8360   122.4420   123.9000 ca         1 RFY      -0.103000
     15 C14        136.1500   125.4450   121.9470 c3         1 RFY       0.172600
     16 C16        135.2610   123.6470   120.5070 ca         1 RFY       0.151100
     17 C18        134.4490   121.7470   119.2640 ca         1 RFY       0.091100
     18 C19        135.3410   122.0000   118.2600 ca         1 RFY       0.015100
     19 C23        134.2200   120.1670   117.7350 c5         1 RFY       0.368600
     20 I13        134.2280   118.8850   123.3760 i          1 RFY      -0.324000
     21 N03        137.0750   127.5860   125.0100 n7         1 RFY      -0.844400
     22 O15        135.1910   124.4160   121.6470 os         1 RFY      -0.356100
     23 O22        135.2390   121.1090   117.2410 os         1 RFY      -0.349100
     24 O24        133.6720   120.6650   119.0070 os         1 RFY      -0.344100
     25 H2         136.9290   123.2730   117.5110 ha         1 RFY       0.131000
     26 H3         136.8720   124.7540   119.5190 ha         1 RFY       0.120000
     27 H4         135.2480   125.0560   126.3070 hc         1 RFY       0.050700
     28 H5         136.9710   125.0290   126.6050 hc         1 RFY       0.050700
     29 H6         136.5020   127.2890   127.0370 h1         1 RFY       0.056700
     30 H7         135.1630   127.3480   125.8760 h1         1 RFY       0.056700
     31 H8         137.4900   127.4250   122.9480 h1         1 RFY       0.051700
     32 H9         135.8980   128.0960   123.3160 h1         1 RFY       0.051700
     33 H10        134.8750   126.0450   123.5630 hc         1 RFY       0.075700
     34 H11        137.5800   124.8700   124.3650 hc         1 RFY       0.043700
     35 H12        133.8800   123.9720   124.7010 ha         1 RFY       0.114000
     36 H13        133.0350   121.6740   124.2790 ha         1 RFY       0.127000
     37 H14        137.0300   120.3560   123.3460 ha         1 RFY       0.127000
     38 H15        137.8980   122.6440   123.7750 ha         1 RFY       0.114000
     39 H16        137.1770   125.0740   121.8310 h1         1 RFY       0.043200
     40 H17        136.0090   126.2950   121.2660 h1         1 RFY       0.043200
     41 H18        133.4150   120.0740   116.9970 h2         1 RFY       0.068700
     42 H19        134.6890   119.1910   117.9050 h2         1 RFY       0.068700
     43 H20        138.0050   127.1660   125.1300 hn         1 RFY       0.405000
     44 H1         133.6620   122.3400   121.1930 ha         1 RFY       0.146000
@<TRIPOS>BOND
     1     1    12 ar  
     2     1    13 ar  
     3     1    20 1   
     4     2    16 ar  
     5     2    17 ar  
     6     2    44 1   
     7     3     4 ar  
     8     3    18 ar  
     9     3    25 1   
    10     4    16 ar  
    11     4    26 1   
    12     5     6 1   
    13     5     9 1   
    14     5    27 1   
    15     5    28 1   
    16     6    21 1   
    17     6    29 1   
    18     6    30 1   
    19     7     8 1   
    20     7    21 1   
    21     7    31 1   
    22     7    32 1   
    23     8     9 1   
    24     8    15 1   
    25     8    33 1   
    26     9    10 1   
    27     9    34 1   
    28    10    11 ar  
    29    10    14 ar  
    30    11    12 ar  
    31    11    35 1   
    32    12    36 1   
    33    13    14 ar  
    34    13    37 1   
    35    14    38 1   
    36    15    22 1   
    37    15    39 1   
    38    15    40 1   
    39    16    22 1   
    40    17    18 ar  
    41    17    24 1   
    42    18    23 1   
    43    19    23 1   
    44    19    24 1   
    45    19    41 1   
    46    19    42 1   
    47    21    43 1   
@<TRIPOS>SUBSTRUCTURE
     1 RFY         1 TEMP              0 ****  ****    0 ROOT
