@<TRIPOS>MOLECULE
RFY
   44    47     1     0     0
SMALL
abcg2


@<TRIPOS>ATOM
      1 C10        135.1670   120.9480   123.1140 ca         1 RFY       0.204000
      2 C17        134.1140   123.0000   120.4440 ca         1 RFY      -0.127000
      3 C20        136.4680   122.7220   118.8900 ca         1 RFY      -0.059000
      4 C21        136.3170   123.8020   119.7790 ca         1 RFY      -0.202000
      5 C01        136.0620   125.2350   125.7820 c6         1 RFY      -0.108400
      6 C02        136.1870   126.7500   126.0530 c6         1 RFY       0.147800
      7 C04        136.6450   127.3270   123.7450 c6         1 RFY       0.153800
      8 C05        135.8810   126.0210   123.4030 c6         1 RFY      -0.100700
      9 C06        136.4020   124.8930   124.3180 c6         1 RFY      -0.014400
     10 C07        135.9540   123.5060   123.9190 ca         1 RFY      -0.056300
     11 C08        134.6420   123.0660   124.1060 ca         1 RFY      -0.103000
     12 C09        134.2410   121.7970   123.7090 ca         1 RFY      -0.078000
     13 C11        136.4780   121.3530   122.9140 ca         1 RFY      -0.078000
     14 C12        136.8570   122.6290   123.3200 ca         1 RFY      -0.103000
     15 C14        136.0470   125.7290   121.9200 c3         1 RFY       0.172600
     16 C16        135.1690   123.9260   120.5570 ca         1 RFY       0.151100
     17 C18        134.2890   121.9620   119.5680 ca         1 RFY       0.091100
     18 C19        135.4440   121.8130   118.8120 ca         1 RFY       0.015100
     19 C23        134.1590   120.0130   118.4780 c5         1 RFY       0.368600
     20 I13        134.5620   119.0230   122.4770 i          1 RFY      -0.324000
     21 N03        137.1050   127.4270   125.1350 n7         1 RFY      -0.844400
     22 O15        134.9590   124.9120   121.4740 os         1 RFY      -0.356100
     23 O22        135.3240   120.7010   118.0030 os         1 RFY      -0.349100
     24 O24        133.4100   120.9510   119.2710 os         1 RFY      -0.344100
     25 H2         137.3610   122.6230   118.2880 ha         1 RFY       0.131000
     26 H3         137.1130   124.5270   119.8510 ha         1 RFY       0.120000
     27 H4         135.0460   124.9100   126.0160 hc         1 RFY       0.050700
     28 H5         136.7330   124.6730   126.4360 hc         1 RFY       0.050700
     29 H6         136.5180   126.9250   127.0780 h1         1 RFY       0.056700
     30 H7         135.2100   127.2300   125.9490 h1         1 RFY       0.056700
     31 H8         137.5230   127.4120   123.1000 h1         1 RFY       0.051700
     32 H9         135.9950   128.1780   123.5160 h1         1 RFY       0.051700
     33 H10        134.8140   126.1660   123.5960 hc         1 RFY       0.075700
     34 H11        137.4910   124.9050   124.2160 hc         1 RFY       0.043700
     35 H12        133.9080   123.7240   124.5540 ha         1 RFY       0.114000
     36 H13        133.2160   121.4830   123.8540 ha         1 RFY       0.127000
     37 H14        137.1980   120.6960   122.4460 ha         1 RFY       0.127000
     38 H15        137.8800   122.9480   123.1590 ha         1 RFY       0.114000
     39 H16        137.0010   125.2250   121.7530 h1         1 RFY       0.043200
     40 H17        136.0460   126.6540   121.3360 h1         1 RFY       0.043200
     41 H18        133.5550   119.6910   117.6330 h2         1 RFY       0.068700
     42 H19        134.4620   119.1750   119.1120 h2         1 RFY       0.068700
     43 H20        138.0220   127.0030   125.2150 hn         1 RFY       0.405000
     44 H1         133.2290   123.1020   121.0550 ha         1 RFY       0.146000
@<TRIPOS>BOND
     1     1    12 ar  
     2     1    13 ar  
     3     1    20 1   
     4     2    16 ar  
     5     2    17 ar  
     6     2    44 1   
     7     3     4 ar  
     8     3    18 ar  
     9     3    25 1   
    10     4    16 ar  
    11     4    26 1   
    12     5     6 1   
    13     5     9 1   
    14     5    27 1   
    15     5    28 1   
    16     6    21 1   
    17     6    29 1   
    18     6    30 1   
    19     7     8 1   
    20     7    21 1   
    21     7    31 1   
    22     7    32 1   
    23     8     9 1   
    24     8    15 1   
    25     8    33 1   
    26     9    10 1   
    27     9    34 1   
    28    10    11 ar  
    29    10    14 ar  
    30    11    12 ar  
    31    11    35 1   
    32    12    36 1   
    33    13    14 ar  
    34    13    37 1   
    35    14    38 1   
    36    15    22 1   
    37    15    39 1   
    38    15    40 1   
    39    16    22 1   
    40    17    18 ar  
    41    17    24 1   
    42    18    23 1   
    43    19    23 1   
    44    19    24 1   
    45    19    41 1   
    46    19    42 1   
    47    21    43 1   
@<TRIPOS>SUBSTRUCTURE
     1 RFY         1 TEMP              0 ****  ****    0 ROOT
