@<TRIPOS>MOLECULE
RFZ
   32    34     1     0     0
SMALL
bcc


@<TRIPOS>ATOM
      1 C6           0.5730    -0.4290     0.0780 ca         1 RFZ      -0.081200
      2 C5           1.4190     0.6610     0.2200 ca         1 RFZ      -0.120000
      3 C4           2.7510     0.4560    -0.0880 ca         1 RFZ       0.039400
      4 CL2          3.8480     1.7770     0.0710 cl         1 RFZ      -0.081400
      5 C3           3.2190    -0.7960    -0.5240 ca         1 RFZ       0.003400
      6 CL1          4.8920    -1.0040    -0.8940 cl         1 RFZ      -0.083400
      7 C2           2.3660    -1.8730    -0.6660 ca         1 RFZ      -0.052000
      8 C7           1.0230    -1.6850    -0.3590 ca         1 RFZ       0.075400
      9 N2          -0.0240    -2.5700    -0.4010 nc         1 RFZ      -0.571100
     10 C1          -1.0570    -1.8820    -0.0060 cd         1 RFZ       0.437700
     11 N1          -0.7700    -0.5870     0.2950 na         1 RFZ      -0.179300
     12 C12         -1.6660     0.4540     0.7870 c5         1 RFZ       0.261800
     13 O4          -2.8560    -0.1260     1.2180 os         1 RFZ      -0.377600
     14 C9          -3.9500     0.2430     0.3770 c5         1 RFZ       0.137100
     15 C8          -4.8300    -0.9500     0.1000 c3         1 RFZ       0.140400
     16 O5          -5.3970    -1.3890     1.3080 oh         1 RFZ      -0.578800
     17 C10         -3.3030     0.8230    -0.8780 c5         1 RFZ       0.070100
     18 O3          -4.1620     1.7440    -1.4850 oh         1 RFZ      -0.582800
     19 C11         -2.0250     1.4530    -0.3110 c5         1 RFZ       0.072100
     20 O2          -2.2980     2.6790     0.3070 oh         1 RFZ      -0.582800
     21 H5           1.0750     1.6310     0.5530 ha         1 RFZ       0.158000
     22 H2           2.7350    -2.8330    -1.0010 ha         1 RFZ       0.166000
     23 H1          -2.0550    -2.2810     0.0900 h5         1 RFZ       0.071800
     24 H8          -1.1570     0.9450     1.6230 h2         1 RFZ       0.113700
     25 H4          -4.5410     1.0190     0.8800 h1         1 RFZ       0.096700
     26 H6          -5.5930    -0.6350    -0.6240 h1         1 RFZ       0.027200
     27 H5'A        -4.2360    -1.7360    -0.3870 h1         1 RFZ       0.027200
     28 HO5         -5.9760    -2.1320     1.1160 ho         1 RFZ       0.410000
     29 H3          -3.0340     0.0110    -1.5670 h1         1 RFZ       0.057700
     30 HO3         -3.8930     1.8660    -2.4010 ho         1 RFZ       0.421000
     31 H7          -1.2340     1.5420    -1.0670 h1         1 RFZ       0.073700
     32 HO2         -2.9490     3.1460    -0.2320 ho         1 RFZ       0.431000
@<TRIPOS>BOND
     1     1     2 ar  
     2     1     8 ar  
     3     1    11 1   
     4     2     3 ar  
     5     2    21 1   
     6     3     4 1   
     7     3     5 ar  
     8     5     6 1   
     9     5     7 ar  
    10     7     8 ar  
    11     7    22 1   
    12     8     9 1   
    13     9    10 2   
    14    10    11 1   
    15    10    23 1   
    16    11    12 1   
    17    12    13 1   
    18    12    19 1   
    19    12    24 1   
    20    13    14 1   
    21    14    15 1   
    22    14    17 1   
    23    14    25 1   
    24    15    16 1   
    25    15    26 1   
    26    15    27 1   
    27    16    28 1   
    28    17    18 1   
    29    17    19 1   
    30    17    29 1   
    31    18    30 1   
    32    19    20 1   
    33    19    31 1   
    34    20    32 1   
@<TRIPOS>SUBSTRUCTURE
     1 RFZ         1 TEMP              0 ****  ****    0 ROOT
