@<TRIPOS>MOLECULE
RFZ
   32    34     1     0     0
SMALL
No Charge or Current Charge


@<TRIPOS>ATOM
      1 C6           0.6760    -0.5160     0.0740 ca         1 RFZ      -0.081200
      2 C5           1.4670     0.6350     0.2190 ca         1 RFZ      -0.102000
      3 C4           2.8350     0.5430    -0.1040 ca         1 RFZ       0.131000
      4 Cl2          3.8500     1.9750     0.0680 cl         1 RFZ      -0.173000
      5 C3           3.3770    -0.6870    -0.5600 ca         1 RFZ       0.095000
      6 Cl1          5.0870    -0.8280    -0.9720 cl         1 RFZ      -0.175000
      7 C2           2.5480    -1.8210    -0.6910 ca         1 RFZ      -0.034000
      8 C7           1.1890    -1.7030    -0.3630 ca         1 RFZ       0.075400
      9 N2           0.2200    -2.6850    -0.4220 nc         1 RFZ      -0.571100
     10 C1          -0.8850    -2.0310    -0.0000 cd         1 RFZ       0.437700
     11 N1          -0.6620    -0.6770     0.3190 na         1 RFZ      -0.208600
     12 C12         -1.6410     0.3070     0.7870 c5         1 RFZ       0.314300
     13 O4          -2.8770    -0.3790     1.1200 os         1 RFZ      -0.424000
     14 C9          -3.9690     0.2370     0.3940 c5         1 RFZ       0.160300
     15 C8          -5.1120    -0.7860     0.1460 c3         1 RFZ       0.163600
     16 O5          -5.8010    -1.1140     1.3670 oh         1 RFZ      -0.701000
     17 C10         -3.2860     0.7760    -0.8980 c5         1 RFZ       0.093300
     18 O3          -4.0680     1.7600    -1.5990 oh         1 RFZ      -0.705000
     19 C11         -2.0160     1.4120    -0.2670 c5         1 RFZ       0.095300
     20 O2          -2.3500     2.6810     0.3210 oh         1 RFZ      -0.705000
     21 H5           1.0440     1.5740     0.5690 ha         1 RFZ       0.140000
     22 H2           2.9520    -2.7670    -1.0390 ha         1 RFZ       0.148000
     23 H1          -1.8700    -2.4720     0.0920 h5         1 RFZ       0.071800
     24 H8          -1.2040     0.7650     1.6830 h2         1 RFZ       0.113700
     25 H4          -4.3700     1.0660     0.9940 h1         1 RFZ       0.096700
     26 H6          -5.8180    -0.3510    -0.5740 h1         1 RFZ       0.027200
     27 H5'A        -4.6870    -1.6900    -0.3120 h1         1 RFZ       0.027200
     28 HO5         -6.4790    -1.7940     1.1420 ho         1 RFZ       0.509000
     29 H3          -3.0170    -0.0580    -1.5630 h1         1 RFZ       0.057700
     30 HO3         -3.9020     1.6410    -2.5670 ho         1 RFZ       0.520000
     31 H7          -1.2190     1.5340    -1.0140 h1         1 RFZ       0.073700
     32 HO2         -3.1190     2.9950    -0.2190 ho         1 RFZ       0.530000
@<TRIPOS>BOND
     1     1     2 ar  
     2     1     8 ar  
     3     1    11 1   
     4     2     3 ar  
     5     2    21 1   
     6     3     4 1   
     7     3     5 ar  
     8     5     6 1   
     9     5     7 ar  
    10     7     8 ar  
    11     7    22 1   
    12     8     9 1   
    13     9    10 2   
    14    10    11 1   
    15    10    23 1   
    16    11    12 1   
    17    12    13 1   
    18    12    19 1   
    19    12    24 1   
    20    13    14 1   
    21    14    15 1   
    22    14    17 1   
    23    14    25 1   
    24    15    16 1   
    25    15    26 1   
    26    15    27 1   
    27    16    28 1   
    28    17    18 1   
    29    17    19 1   
    30    17    29 1   
    31    18    30 1   
    32    19    20 1   
    33    19    31 1   
    34    20    32 1   
@<TRIPOS>SUBSTRUCTURE
     1 RFZ         1 TEMP              0 ****  ****    0 ROOT
