@<TRIPOS>MOLECULE
RG0
   26    27     1     0     0
SMALL
No Charge or Current Charge


@<TRIPOS>ATOM
      1 C01         -6.8610     4.6990     6.4980 c3         1 RG0      -0.173100
      2 C02         -5.4970     4.3750     5.8770 c          1 RG0       0.612100
      3 C05         -4.5690     6.4080     7.0510 c5         1 RG0       0.100000
      4 C06         -3.1290     7.0520     7.0950 c5         1 RG0      -0.041100
      5 C07         -2.2890     6.1370     6.2060 ca         1 RG0      -0.081300
      6 C08         -3.0580     5.1030     5.6940 ca         1 RG0      -0.031000
      7 C09         -2.5080     4.1280     4.8460 ca         1 RG0      -0.086000
      8 C10         -1.1470     4.2170     4.5200 ca         1 RG0      -0.086000
      9 C11         -0.3520     5.2590     5.0300 ca         1 RG0       0.133000
     10 C12         -0.9040     6.2500     5.8900 ca         1 RG0      -0.146300
     11 C13          0.0050     7.3790     6.4290 c3         1 RG0       0.352300
     12 F14          0.5400     8.1080     5.4230 f          1 RG0      -0.109000
     13 F15          1.0360     6.8840     7.1520 f          1 RG0      -0.109000
     14 F16         -0.6170     8.2660     7.2350 f          1 RG0      -0.109000
     15 N04         -4.3940     5.2280     6.1660 n          1 RG0      -0.228400
     16 O03         -5.3940     3.3930     5.1530 o          1 RG0      -0.584100
     17 H1          -7.6330     3.9780     6.2080 hc         1 RG0       0.066700
     18 H2          -6.7620     4.7560     7.5870 hc         1 RG0       0.066700
     19 H3          -7.1520     5.7200     6.2250 hc         1 RG0       0.066700
     20 H4          -5.3030     7.1130     6.6380 h1         1 RG0       0.054700
     21 H5          -4.8970     6.1090     8.0550 h1         1 RG0       0.054700
     22 H6          -2.7540     7.0860     8.1230 hc         1 RG0       0.077200
     23 H7          -3.1560     8.0800     6.7190 hc         1 RG0       0.077200
     24 H8          -3.0980     3.3130     4.4380 ha         1 RG0       0.162000
     25 H9          -0.7020     3.4720     3.8650 ha         1 RG0       0.139000
     26 Cl17         1.3490     5.2720     4.5520 cl         1 RG0      -0.179000
@<TRIPOS>BOND
     1     1     2 1   
     2     1    17 1   
     3     1    18 1   
     4     1    19 1   
     5     2    15 1   
     6     2    16 2   
     7     3     4 1   
     8     3    15 1   
     9     3    20 1   
    10     3    21 1   
    11     4     5 1   
    12     4    22 1   
    13     4    23 1   
    14     5     6 ar  
    15     5    10 ar  
    16     6     7 ar  
    17     6    15 1   
    18     7     8 ar  
    19     7    24 1   
    20     8     9 ar  
    21     8    25 1   
    22     9    10 ar  
    23     9    26 1   
    24    10    11 1   
    25    11    12 1   
    26    11    13 1   
    27    11    14 1   
@<TRIPOS>SUBSTRUCTURE
     1 RG0         1 TEMP              0 ****  ****    0 ROOT
