@<TRIPOS>MOLECULE
RG0
   26    27     1     0     0
SMALL
abcg2


@<TRIPOS>ATOM
      1 C01         -6.7560     4.7180     6.5270 c3         1 RG0      -0.173100
      2 C02         -5.4200     4.3570     5.9280 c          1 RG0       0.612100
      3 C05         -4.5560     6.4770     6.9540 c5         1 RG0       0.100000
      4 C06         -3.1290     7.0260     7.1230 c5         1 RG0      -0.041100
      5 C07         -2.2870     6.1530     6.2230 ca         1 RG0      -0.081300
      6 C08         -3.0770     5.1140     5.7100 ca         1 RG0      -0.031000
      7 C09         -2.5420     4.1540     4.8610 ca         1 RG0      -0.086000
      8 C10         -1.1980     4.2460     4.5220 ca         1 RG0      -0.086000
      9 C11         -0.4070     5.2650     5.0230 ca         1 RG0       0.133000
     10 C12         -0.9380     6.2360     5.8910 ca         1 RG0      -0.146300
     11 C13         -0.0510     7.3290     6.4330 c3         1 RG0       0.352300
     12 F14          0.4470     8.1130     5.4470 f          1 RG0      -0.109000
     13 F15          1.0120     6.8370     7.1110 f          1 RG0      -0.109000
     14 F16         -0.6850     8.1530     7.2850 f          1 RG0      -0.109000
     15 N04         -4.3970     5.2280     6.1760 n          1 RG0      -0.228400
     16 O03         -5.2650     3.3360     5.2610 o          1 RG0      -0.584100
     17 H1          -7.4870     3.9810     6.2070 hc         1 RG0       0.066700
     18 H2          -6.7010     4.7210     7.6180 hc         1 RG0       0.066700
     19 H3          -7.0780     5.7130     6.2120 hc         1 RG0       0.066700
     20 H4          -5.1860     7.1730     6.3990 h1         1 RG0       0.054700
     21 H5          -5.0280     6.2670     7.9100 h1         1 RG0       0.054700
     22 H6          -2.7950     6.9440     8.1580 hc         1 RG0       0.077200
     23 H7          -3.0770     8.0760     6.8460 hc         1 RG0       0.077200
     24 H8          -3.1530     3.3580     4.4710 ha         1 RG0       0.162000
     25 H9          -0.7600     3.5150     3.8560 ha         1 RG0       0.139000
     26 CL17         1.2700     5.2960     4.5220 cl         1 RG0      -0.179000
@<TRIPOS>BOND
     1     1     2 1   
     2     1    17 1   
     3     1    18 1   
     4     1    19 1   
     5     2    15 1   
     6     2    16 2   
     7     3     4 1   
     8     3    15 1   
     9     3    20 1   
    10     3    21 1   
    11     4     5 1   
    12     4    22 1   
    13     4    23 1   
    14     5     6 ar  
    15     5    10 ar  
    16     6     7 ar  
    17     6    15 1   
    18     7     8 ar  
    19     7    24 1   
    20     8     9 ar  
    21     8    25 1   
    22     9    10 ar  
    23     9    26 1   
    24    10    11 1   
    25    11    12 1   
    26    11    13 1   
    27    11    14 1   
@<TRIPOS>SUBSTRUCTURE
     1 RG0         1 TEMP              0 ****  ****    0 ROOT
