@<TRIPOS>MOLECULE
RG1
  118   118     1     0     0
SMALL
abcg2


@<TRIPOS>ATOM
      1 C1          10.4150    -0.8540    60.7780 c6         1 RG1       0.408300
      2 C2          11.4090    -0.6150    61.9110 c6         1 RG1       0.143300
      3 C3          11.3220    -1.7790    62.8910 c6         1 RG1       0.095300
      4 C4           9.8860    -1.9930    63.3660 c6         1 RG1       0.111300
      5 C5           8.9710    -2.1310    62.1490 c6         1 RG1       0.183300
      6 C6           7.5100    -2.2270    62.5350 c3         1 RG1       0.171600
      7 O1          10.4030     0.2390    59.9470 os         1 RG1      -0.443000
      8 O2          12.6930    -0.5010    61.3570 oh         1 RG1      -0.705000
      9 O3          12.1950    -1.5010    63.9650 oh         1 RG1      -0.667000
     10 O4           9.7760    -3.1640    64.1410 oh         1 RG1      -0.720000
     11 O5           9.1260    -0.9960    61.3250 os         1 RG1      -0.468000
     12 O6           6.7450    -2.4400    61.3720 oh         1 RG1      -0.711000
     13 C31         10.1890     0.0600    58.5340 c3         1 RG1       0.202000
     14 CM1          8.9440    -0.7750    58.2490 c3         1 RG1      -0.114600
     15 CM2         11.4220    -0.5890    57.9110 c3         1 RG1      -0.114600
     16 C32         10.0170     1.5030    58.0410 c3         1 RG1      -0.072400
     17 C33          9.7260     1.6750    56.5560 c3         1 RG1      -0.069400
     18 C34          9.6780     3.1560    56.1610 c3         1 RG1      -0.045200
     19 C35          9.3140     3.3470    54.7150 c2         1 RG1      -0.092400
     20 CM3          7.8570     3.1980    54.4000 c3         1 RG1      -0.057900
     21 C36         10.2720     3.6050    53.8050 ce         1 RG1      -0.194000
     22 C7          10.0970     3.7280    52.3770 ce         1 RG1      -0.164000
     23 C8          11.1140     3.9720    51.5250 cf         1 RG1      -0.183000
     24 C9          11.0030     4.0430    50.0830 cf         1 RG1      -0.058200
     25 CM4          9.6490     3.8360    49.4720 c3         1 RG1      -0.056900
     26 C10         12.1280     4.2760    49.3590 ce         1 RG1      -0.181000
     27 C11         12.2420     4.3190    47.9290 ce         1 RG1      -0.168000
     28 C12         13.4140     4.5420    47.2890 cf         1 RG1      -0.177000
     29 C13         13.6010     4.5290    45.8570 cf         1 RG1      -0.060200
     30 CM5         12.4090     4.2430    44.9920 c3         1 RG1      -0.055900
     31 C14         14.8510     4.7580    45.3700 ce         1 RG1      -0.178000
     32 C15         15.2640     4.7260    44.0010 ce         1 RG1      -0.170000
     33 C16         16.5380     4.9610    43.5990 cf         1 RG1      -0.172000
     34 C17         16.9390     4.8630    42.2290 cf         1 RG1      -0.176000
     35 C18         18.1790     5.0680    41.7050 ce         1 RG1      -0.063200
     36 CM6         19.3690     5.4870    42.5150 c3         1 RG1      -0.054900
     37 C19         18.3520     4.8460    40.2900 ce         1 RG1      -0.174000
     38 C20         19.5050     4.9860    39.5940 cf         1 RG1      -0.171000
     39 C21         19.5940     4.6750    38.1970 cf         1 RG1      -0.178000
     40 C22         20.6890     4.7620    37.3950 ce         1 RG1      -0.062200
     41 CM7         22.0210     5.2720    37.8570 c3         1 RG1      -0.055900
     42 C23         20.5630     4.3150    36.0280 ce         1 RG1      -0.177000
     43 C24         21.5510     4.2980    35.1030 cf         1 RG1      -0.169000
     44 C25         21.3560     3.7780    33.7790 cf         1 RG1      -0.181000
     45 C26         22.2690     3.7000    32.7770 ce         1 RG1      -0.059200
     46 CM8         23.6780     4.1990    32.8910 c3         1 RG1      -0.055900
     47 C27         21.8610     3.0910    31.5280 ce         1 RG1      -0.183000
     48 C28         22.6410     2.9240    30.4400 cf         1 RG1      -0.164000
     49 C29         22.1740     2.2810    29.2330 cf         1 RG1      -0.195000
     50 C30         22.8730     2.0750    28.1020 c2         1 RG1      -0.094400
     51 CM9         22.2480     1.3750    26.9340 c3         1 RG1      -0.058400
     52 CM0         24.2910     2.5020    27.8840 c3         1 RG1      -0.058400
     53 H1          10.6970    -1.7830    60.2500 h2         1 RG1       0.033700
     54 H2          11.1120     0.3110    62.4300 h1         1 RG1       0.067700
     55 H3          11.6390    -2.6910    62.3620 h1         1 RG1       0.051700
     56 H4           9.5660    -1.1090    63.9380 h1         1 RG1       0.058700
     57 H5           9.2550    -3.0440    61.5970 h1         1 RG1       0.056700
     58 H6           7.2190    -1.3010    63.0520 h1         1 RG1       0.034200
     59 H7           7.3950    -3.0460    63.2520 h1         1 RG1       0.034200
     60 H8          13.3240    -0.4810    62.0860 ho         1 RG1       0.516000
     61 H9          12.5330    -2.3290    64.3190 ho         1 RG1       0.451000
     62 H10         10.1170    -2.9830    65.0220 ho         1 RG1       0.511000
     63 H11          5.8240    -2.5200    61.6330 ho         1 RG1       0.503000
     64 H12          9.0310    -1.7880    58.6440 hc         1 RG1       0.044533
     65 H13          8.0490    -0.3170    58.6700 hc         1 RG1       0.044533
     66 H14          8.7980    -0.8700    57.1730 hc         1 RG1       0.044533
     67 H15         11.5870    -1.5980    58.2950 hc         1 RG1       0.044533
     68 H16         11.3100    -0.6790    56.8310 hc         1 RG1       0.044533
     69 H17         12.3180     0.0010    58.1120 hc         1 RG1       0.044533
     70 H18         10.9280     2.0570    58.2930 hc         1 RG1       0.054200
     71 H19          9.2040     1.9650    58.6120 hc         1 RG1       0.054200
     72 H20          8.7750     1.2000    56.3020 hc         1 RG1       0.042200
     73 H21         10.4910     1.1830    55.9500 hc         1 RG1       0.042200
     74 H22         10.6520     3.6070    56.3680 hc         1 RG1       0.046700
     75 H23          8.9490     3.6710    56.7970 hc         1 RG1       0.046700
     76 H24          7.2840     3.9770    54.9100 hc         1 RG1       0.041033
     77 H25          7.6250     3.2600    53.3390 hc         1 RG1       0.041033
     78 H26          7.4710     2.2450    54.7670 hc         1 RG1       0.041033
     79 H27         11.2920     3.7130    54.1680 ha         1 RG1       0.170000
     80 H28          9.0980     3.5970    51.9780 ha         1 RG1       0.171000
     81 H29         12.1120     4.1060    51.9360 ha         1 RG1       0.170000
     82 H30          9.2490     2.8530    49.7310 hc         1 RG1       0.041700
     83 H31          8.9380     4.5730    49.8500 hc         1 RG1       0.041700
     84 H32          9.6520     3.9140    48.3880 hc         1 RG1       0.041700
     85 H33         13.0530     4.4250    49.9110 ha         1 RG1       0.170000
     86 H34         11.3500     4.1400    47.3410 ha         1 RG1       0.173000
     87 H35         14.3010     4.7270    47.8890 ha         1 RG1       0.171000
     88 H36         11.9760     3.2710    45.2330 hc         1 RG1       0.042700
     89 H37         11.6260     4.9860    45.1550 hc         1 RG1       0.042700
     90 H38         12.6420     4.2450    43.9300 hc         1 RG1       0.042700
     91 H39         15.6350     4.9690    46.0940 ha         1 RG1       0.169000
     92 H40         14.5300     4.4800    43.2390 ha         1 RG1       0.171000
     93 H41         17.2790     5.2140    44.3510 ha         1 RG1       0.173000
     94 H42         16.1550     4.5710    41.5360 ha         1 RG1       0.168000
     95 H43         19.1410     5.6160    43.5690 hc         1 RG1       0.042033
     96 H44         20.1720     4.7500    42.4380 hc         1 RG1       0.042033
     97 H45         19.7760     6.4330    42.1500 hc         1 RG1       0.042033
     98 H46         17.4690     4.5160    39.7490 ha         1 RG1       0.169000
     99 H47         20.3980     5.3210    40.1090 ha         1 RG1       0.174000
    100 H48         18.6780     4.3030    37.7430 ha         1 RG1       0.169000
    101 H49         22.0200     5.5800    38.9000 hc         1 RG1       0.042367
    102 H50         22.7940     4.5110    37.7370 hc         1 RG1       0.042367
    103 H51         22.3330     6.1340    37.2630 hc         1 RG1       0.042367
    104 H52         19.5850     3.9390    35.7360 ha         1 RG1       0.170000
    105 H53         22.5320     4.6710    35.3720 ha         1 RG1       0.173000
    106 H54         20.3620     3.3890    33.5730 ha         1 RG1       0.169000
    107 H55         23.8920     4.6540    33.8550 hc         1 RG1       0.041700
    108 H56         24.3940     3.3880    32.7430 hc         1 RG1       0.041700
    109 H57         23.8880     4.9460    32.1230 hc         1 RG1       0.041700
    110 H58         20.8350     2.7330    31.4830 ha         1 RG1       0.170000
    111 H59         23.6660     3.2760    30.4670 ha         1 RG1       0.171000
    112 H60         21.1460     1.9270    29.2600 ha         1 RG1       0.169000
    113 H61         21.2230     1.0680    27.1370 hc         1 RG1       0.040867
    114 H62         22.2420     2.0200    26.0510 hc         1 RG1       0.040867
    115 H63         22.8210     0.4850    26.6600 hc         1 RG1       0.040867
    116 H64         24.7330     3.0220    28.7300 hc         1 RG1       0.040867
    117 H65         24.9190     1.6360    27.6590 hc         1 RG1       0.040867
    118 H66         24.3580     3.1620    27.0150 hc         1 RG1       0.040867
@<TRIPOS>BOND
     1     1     2 1   
     2     1     7 1   
     3     1    11 1   
     4     1    53 1   
     5     2     3 1   
     6     2     8 1   
     7     2    54 1   
     8     3     4 1   
     9     3     9 1   
    10     3    55 1   
    11     4     5 1   
    12     4    10 1   
    13     4    56 1   
    14     5     6 1   
    15     5    11 1   
    16     5    57 1   
    17     6    12 1   
    18     6    58 1   
    19     6    59 1   
    20     7    13 1   
    21     8    60 1   
    22     9    61 1   
    23    10    62 1   
    24    12    63 1   
    25    13    14 1   
    26    13    15 1   
    27    13    16 1   
    28    14    64 1   
    29    14    65 1   
    30    14    66 1   
    31    15    67 1   
    32    15    68 1   
    33    15    69 1   
    34    16    17 1   
    35    16    70 1   
    36    16    71 1   
    37    17    18 1   
    38    17    72 1   
    39    17    73 1   
    40    18    19 1   
    41    18    74 1   
    42    18    75 1   
    43    19    20 1   
    44    19    21 2   
    45    20    76 1   
    46    20    77 1   
    47    20    78 1   
    48    21    22 1   
    49    21    79 1   
    50    22    23 2   
    51    22    80 1   
    52    23    24 1   
    53    23    81 1   
    54    24    25 1   
    55    24    26 2   
    56    25    82 1   
    57    25    83 1   
    58    25    84 1   
    59    26    27 1   
    60    26    85 1   
    61    27    28 2   
    62    27    86 1   
    63    28    29 1   
    64    28    87 1   
    65    29    30 1   
    66    29    31 2   
    67    30    88 1   
    68    30    89 1   
    69    30    90 1   
    70    31    32 1   
    71    31    91 1   
    72    32    33 2   
    73    32    92 1   
    74    33    34 1   
    75    33    93 1   
    76    34    35 2   
    77    34    94 1   
    78    35    36 1   
    79    35    37 1   
    80    36    95 1   
    81    36    96 1   
    82    36    97 1   
    83    37    38 2   
    84    37    98 1   
    85    38    39 1   
    86    38    99 1   
    87    39    40 2   
    88    39   100 1   
    89    40    41 1   
    90    40    42 1   
    91    41   101 1   
    92    41   102 1   
    93    41   103 1   
    94    42    43 2   
    95    42   104 1   
    96    43    44 1   
    97    43   105 1   
    98    44    45 2   
    99    44   106 1   
   100    45    46 1   
   101    45    47 1   
   102    46   107 1   
   103    46   108 1   
   104    46   109 1   
   105    47    48 2   
   106    47   110 1   
   107    48    49 1   
   108    48   111 1   
   109    49    50 2   
   110    49   112 1   
   111    50    51 1   
   112    50    52 1   
   113    51   113 1   
   114    51   114 1   
   115    51   115 1   
   116    52   116 1   
   117    52   117 1   
   118    52   118 1   
@<TRIPOS>SUBSTRUCTURE
     1 RG1         1 TEMP              0 ****  ****    0 ROOT
