@<TRIPOS>MOLECULE
RG1
  118   118     1     0     0
SMALL
No Charge or Current Charge


@<TRIPOS>ATOM
      1 C1          10.4780    -0.5670    61.2700 c6         1 RG1       0.408300
      2 C2          11.2990    -0.0600    62.5070 c6         1 RG1       0.143300
      3 C3          11.4190    -1.2150    63.5390 c6         1 RG1       0.095300
      4 C4          10.0070    -1.7460    63.9310 c6         1 RG1       0.111300
      5 C5           9.2350    -2.1500    62.6290 c6         1 RG1       0.183300
      6 C6           7.7680    -2.6200    62.9110 c3         1 RG1       0.171600
      7 O1          10.3020     0.4970    60.3000 os         1 RG1      -0.443000
      8 O2          12.6230     0.4160    62.1720 oh         1 RG1      -0.705000
      9 O3          12.1360    -0.7800    64.7090 oh         1 RG1      -0.667000
     10 O4          10.1480    -2.8500    64.8530 oh         1 RG1      -0.720000
     11 O5           9.1840    -1.0180    61.7220 os         1 RG1      -0.468000
     12 O6           7.0320    -2.9540    61.7150 oh         1 RG1      -0.711000
     13 C31         10.0100     0.2090    58.9070 c3         1 RG1       0.202000
     14 CM1          8.7100    -0.6340    58.8050 c3         1 RG1      -0.114600
     15 CM2         11.2260    -0.5450    58.3050 c3         1 RG1      -0.114600
     16 C32          9.8340     1.6220    58.2710 c3         1 RG1      -0.072400
     17 C33          9.5310     1.6770    56.7490 c3         1 RG1      -0.069400
     18 C34          9.3760     3.1210    56.2210 c3         1 RG1      -0.045200
     19 C35          9.1140     3.1720    54.7220 c2         1 RG1      -0.092400
     20 CM3          7.6900     2.7810    54.3480 c3         1 RG1      -0.057900
     21 C36         10.0800     3.5000    53.8320 ce         1 RG1      -0.194000
     22 C7           9.9200     3.5350    52.3700 ce         1 RG1      -0.164000
     23 C8          10.9110     3.8970    51.5070 cf         1 RG1      -0.183000
     24 C9          10.8410     3.9470    50.0430 cf         1 RG1      -0.058200
     25 CM4          9.4560     3.9170    49.4010 c3         1 RG1      -0.056900
     26 C10         11.9880     4.0790    49.3110 ce         1 RG1      -0.181000
     27 C11         12.1080     4.1450    47.8450 ce         1 RG1      -0.168000
     28 C12         13.2890     4.3390    47.1900 cf         1 RG1      -0.177000
     29 C13         13.5010     4.4020    45.7400 cf         1 RG1      -0.060200
     30 CM5         12.2730     4.6030    44.8550 c3         1 RG1      -0.055900
     31 C14         14.7690     4.3430    45.2350 ce         1 RG1      -0.178000
     32 C15         15.1700     4.3920    43.8190 ce         1 RG1      -0.170000
     33 C16         16.4610     4.3880    43.3930 cf         1 RG1      -0.172000
     34 C17         16.8610     4.4210    41.9870 cf         1 RG1      -0.176000
     35 C18         18.1310     4.4780    41.4870 ce         1 RG1      -0.063200
     36 CM6         19.3680     4.5870    42.3760 c3         1 RG1      -0.054900
     37 C19         18.3440     4.5040    40.0250 ce         1 RG1      -0.174000
     38 C20         19.5210     4.3250    39.3590 cf         1 RG1      -0.171000
     39 C21         19.6450     4.3510    37.9030 cf         1 RG1      -0.178000
     40 C22         20.7900     4.2380    37.1650 ce         1 RG1      -0.062200
     41 CM7         22.1750     4.1330    37.7990 c3         1 RG1      -0.055900
     42 C23         20.7220     4.2870    35.6910 ce         1 RG1      -0.177000
     43 C24         21.7070     3.9580    34.8070 cf         1 RG1      -0.169000
     44 C25         21.5530     4.0190    33.3550 cf         1 RG1      -0.181000
     45 C26         22.5040     3.7630    32.4080 ce         1 RG1      -0.059200
     46 CM8         23.9510     3.4250    32.7590 c3         1 RG1      -0.055900
     47 C27         22.1630     3.8760    30.9750 ce         1 RG1      -0.183000
     48 C28         22.9000     3.4390    29.9140 cf         1 RG1      -0.164000
     49 C29         22.4840     3.5790    28.5220 cf         1 RG1      -0.195000
     50 C30         23.1950     3.1900    27.4340 c2         1 RG1      -0.094400
     51 CM9         22.6660     3.3400    26.0190 c3         1 RG1      -0.058400
     52 CM0         24.5700     2.5390    27.4810 c3         1 RG1      -0.058400
     53 H1          11.0210    -1.4070    60.8140 h2         1 RG1       0.033700
     54 H2          10.7210     0.7540    62.9710 h1         1 RG1       0.067700
     55 H3          11.9660    -2.0420    63.0610 h1         1 RG1       0.051700
     56 H4           9.4550    -0.9240    64.4120 h1         1 RG1       0.058700
     57 H5           9.7660    -2.9760    62.1320 h1         1 RG1       0.056700
     58 H6           7.2530    -1.8180    63.4570 h1         1 RG1       0.034200
     59 H7           7.8080    -3.4930    63.5760 h1         1 RG1       0.034200
     60 H8          13.1190     0.3680    63.0250 ho         1 RG1       0.516000
     61 H9          11.9540    -1.4670    65.3910 ho         1 RG1       0.451000
     62 H10          9.3550    -2.8560    65.4400 ho         1 RG1       0.511000
     63 H11          6.1090    -3.1580    61.9930 ho         1 RG1       0.503000
     64 H12          8.8450    -1.6330    59.2340 hc         1 RG1       0.044533
     65 H13          7.8810    -0.1390    59.3240 hc         1 RG1       0.044533
     66 H14          8.4170    -0.7810    57.7600 hc         1 RG1       0.044533
     67 H15         11.3460    -1.5410    58.7440 hc         1 RG1       0.044533
     68 H16         11.1010    -0.6930    57.2260 hc         1 RG1       0.044533
     69 H17         12.1530     0.0180    58.4660 hc         1 RG1       0.044533
     70 H18         10.7450     2.2040    58.4610 hc         1 RG1       0.054200
     71 H19          9.0260     2.1420    58.8010 hc         1 RG1       0.054200
     72 H20          8.6100     1.1240    56.5340 hc         1 RG1       0.042200
     73 H21         10.3380     1.1900    56.1900 hc         1 RG1       0.042200
     74 H22         10.2900     3.6780    56.4590 hc         1 RG1       0.046700
     75 H23          8.5700     3.6260    56.7680 hc         1 RG1       0.046700
     76 H24          6.9970     2.8780    55.1920 hc         1 RG1       0.041033
     77 H25          7.2960     3.4150    53.5450 hc         1 RG1       0.041033
     78 H26          7.6490     1.7400    54.0060 hc         1 RG1       0.041033
     79 H27         11.0740     3.7560    54.2030 ha         1 RG1       0.170000
     80 H28          8.9530     3.2320    51.9710 ha         1 RG1       0.171000
     81 H29         11.8760     4.1630    51.9450 ha         1 RG1       0.170000
     82 H30          9.1470     2.8890    49.1760 hc         1 RG1       0.041700
     83 H31          8.6930     4.3640    50.0470 hc         1 RG1       0.041700
     84 H32          9.4180     4.4900    48.4680 hc         1 RG1       0.041700
     85 H33         12.9310     4.1260    49.8580 ha         1 RG1       0.170000
     86 H34         11.1990     4.0050    47.2630 ha         1 RG1       0.173000
     87 H35         14.1850     4.4410    47.8050 ha         1 RG1       0.171000
     88 H36         11.8450     3.6410    44.5500 hc         1 RG1       0.042700
     89 H37         11.4890     5.1750    45.3630 hc         1 RG1       0.042700
     90 H38         12.5040     5.1700    43.9470 hc         1 RG1       0.042700
     91 H39         15.5890     4.2320    45.9460 ha         1 RG1       0.169000
     92 H40         14.3820     4.4210    43.0660 ha         1 RG1       0.171000
     93 H41         17.2460     4.3480    44.1490 ha         1 RG1       0.173000
     94 H42         16.0410     4.3790    41.2670 ha         1 RG1       0.168000
     95 H43         19.1540     5.0840    43.3280 hc         1 RG1       0.042033
     96 H44         19.7810     3.5960    42.6010 hc         1 RG1       0.042033
     97 H45         20.1590     5.1830    41.9080 hc         1 RG1       0.042033
     98 H46         17.4500     4.6670    39.4220 ha         1 RG1       0.169000
     99 H47         20.4240     4.1260    39.9360 ha         1 RG1       0.174000
    100 H48         18.7060     4.4570    37.3550 ha         1 RG1       0.169000
    101 H49         22.2260     4.6290    38.7740 hc         1 RG1       0.042367
    102 H50         22.4650     3.0850    37.9410 hc         1 RG1       0.042367
    103 H51         22.9450     4.6150    37.1860 hc         1 RG1       0.042367
    104 H52         19.7640     4.6060    35.2740 ha         1 RG1       0.170000
    105 H53         22.6620     3.6030    35.1960 ha         1 RG1       0.173000
    106 H54         20.5550     4.2860    33.0010 ha         1 RG1       0.169000
    107 H55         24.2640     3.8700    33.7090 hc         1 RG1       0.041700
    108 H56         24.0980     2.3410    32.8320 hc         1 RG1       0.041700
    109 H57         24.6550     3.8100    32.0120 hc         1 RG1       0.041700
    110 H58         21.2040     4.3480    30.7550 ha         1 RG1       0.170000
    111 H59         23.8470     2.9340    30.1040 ha         1 RG1       0.171000
    112 H60         21.5030     4.0330    28.3600 ha         1 RG1       0.169000
    113 H61         21.6560     3.7660    26.0040 hc         1 RG1       0.040867
    114 H62         23.3090     4.0010    25.4250 hc         1 RG1       0.040867
    115 H63         22.6210     2.3700    25.5090 hc         1 RG1       0.040867
    116 H64         25.1910     2.9550    28.2820 hc         1 RG1       0.040867
    117 H65         24.4850     1.4580    27.6440 hc         1 RG1       0.040867
    118 H66         25.1230     2.6900    26.5460 hc         1 RG1       0.040867
@<TRIPOS>BOND
     1     1     2 1   
     2     1     7 1   
     3     1    11 1   
     4     1    53 1   
     5     2     3 1   
     6     2     8 1   
     7     2    54 1   
     8     3     4 1   
     9     3     9 1   
    10     3    55 1   
    11     4     5 1   
    12     4    10 1   
    13     4    56 1   
    14     5     6 1   
    15     5    11 1   
    16     5    57 1   
    17     6    12 1   
    18     6    58 1   
    19     6    59 1   
    20     7    13 1   
    21     8    60 1   
    22     9    61 1   
    23    10    62 1   
    24    12    63 1   
    25    13    14 1   
    26    13    15 1   
    27    13    16 1   
    28    14    64 1   
    29    14    65 1   
    30    14    66 1   
    31    15    67 1   
    32    15    68 1   
    33    15    69 1   
    34    16    17 1   
    35    16    70 1   
    36    16    71 1   
    37    17    18 1   
    38    17    72 1   
    39    17    73 1   
    40    18    19 1   
    41    18    74 1   
    42    18    75 1   
    43    19    20 1   
    44    19    21 2   
    45    20    76 1   
    46    20    77 1   
    47    20    78 1   
    48    21    22 1   
    49    21    79 1   
    50    22    23 2   
    51    22    80 1   
    52    23    24 1   
    53    23    81 1   
    54    24    25 1   
    55    24    26 2   
    56    25    82 1   
    57    25    83 1   
    58    25    84 1   
    59    26    27 1   
    60    26    85 1   
    61    27    28 2   
    62    27    86 1   
    63    28    29 1   
    64    28    87 1   
    65    29    30 1   
    66    29    31 2   
    67    30    88 1   
    68    30    89 1   
    69    30    90 1   
    70    31    32 1   
    71    31    91 1   
    72    32    33 2   
    73    32    92 1   
    74    33    34 1   
    75    33    93 1   
    76    34    35 2   
    77    34    94 1   
    78    35    36 1   
    79    35    37 1   
    80    36    95 1   
    81    36    96 1   
    82    36    97 1   
    83    37    38 2   
    84    37    98 1   
    85    38    39 1   
    86    38    99 1   
    87    39    40 2   
    88    39   100 1   
    89    40    41 1   
    90    40    42 1   
    91    41   101 1   
    92    41   102 1   
    93    41   103 1   
    94    42    43 2   
    95    42   104 1   
    96    43    44 1   
    97    43   105 1   
    98    44    45 2   
    99    44   106 1   
   100    45    46 1   
   101    45    47 1   
   102    46   107 1   
   103    46   108 1   
   104    46   109 1   
   105    47    48 2   
   106    47   110 1   
   107    48    49 1   
   108    48   111 1   
   109    49    50 2   
   110    49   112 1   
   111    50    51 1   
   112    50    52 1   
   113    51   113 1   
   114    51   114 1   
   115    51   115 1   
   116    52   116 1   
   117    52   117 1   
   118    52   118 1   
@<TRIPOS>SUBSTRUCTURE
     1 RG1         1 TEMP              0 ****  ****    0 ROOT
