@<TRIPOS>MOLECULE
RG2
   36    38     1     0     0
SMALL
bcc


@<TRIPOS>ATOM
      1 CLAW        -7.7540    -0.9850     0.0530 cl         1 RG2      -0.134400
      2 CAV         -6.0230    -1.0070    -0.0040 ca         1 RG2       0.030400
      3 CAY         -5.3010    -0.9610     1.1790 ca         1 RG2      -0.128000
      4 CAZ         -3.9160    -0.9790     1.1240 ca         1 RG2      -0.099000
      5 CAU         -5.3800    -1.0750    -1.2290 ca         1 RG2      -0.128000
      6 CAT         -3.9940    -1.0910    -1.2640 ca         1 RG2      -0.099000
      7 CAS         -3.2450    -1.0470    -0.0930 ca         1 RG2      -0.087300
      8 CAR         -1.7440    -1.0210    -0.1400 c3         1 RG2       0.284100
      9 NAQ         -1.2860     0.3430    -0.0470 nu         1 RG2      -0.875900
     10 CAP          0.0070     0.6710    -0.0190 ca         1 RG2       0.602900
     11 CAC          0.3950     2.0810     0.0680 ca         1 RG2       0.244500
     12 CAB         -0.6280     3.2280     0.1070 c          1 RG2       0.833100
     13 OAA         -0.1690     4.3700     0.1710 o          1 RG2      -0.785800
     14 OBA         -1.8380     2.9010     0.0640 o          1 RG2      -0.785800
     15 NAD          1.6440     2.4060     0.1080 nb         1 RG2      -0.603000
     16 CAE          2.5900     1.4290     0.0670 ca         1 RG2       0.248300
     17 CAF          3.9490     1.7730     0.1160 ca         1 RG2      -0.133300
     18 CAG          4.9180     0.8010     0.0690 ca         1 RG2      -0.147000
     19 NAO          0.9090    -0.2850    -0.0730 nb         1 RG2      -0.817000
     20 CAN          2.2090     0.0750    -0.0290 ca         1 RG2       0.348300
     21 CAM          3.2130    -0.9080    -0.0830 ca         1 RG2      -0.144300
     22 CAH          4.5400    -0.5480    -0.0330 ca         1 RG2      -0.194300
     23 CAI          5.5700    -1.6370    -0.0780 c3         1 RG2       0.717200
     24 FAL          6.8190    -1.1630    -0.0870 f          1 RG2      -0.245300
     25 FAJ          5.4660    -2.4530     0.9780 f          1 RG2      -0.245300
     26 FAK          5.4310    -2.4010    -1.1690 f          1 RG2      -0.245300
     27 H1          -5.8090    -0.9120     2.1320 ha         1 RG2       0.139500
     28 H2          -3.3530    -0.9440     2.0490 ha         1 RG2       0.140000
     29 H3          -5.9500    -1.1140    -2.1470 ha         1 RG2       0.139500
     30 H4          -3.4940    -1.1440    -2.2230 ha         1 RG2       0.140000
     31 H5          -1.3270    -1.6150     0.6790 h1         1 RG2       0.046200
     32 H6          -1.3860    -1.4870    -1.0640 h1         1 RG2       0.046200
     33 H7          -1.9240     1.1400    -0.0280 hn         1 RG2       0.517800
     34 H9           4.2180     2.8180     0.1910 ha         1 RG2       0.146000
     35 H10          5.9590     1.0860     0.1110 ha         1 RG2       0.132000
     36 H11          2.9080    -1.9440    -0.1640 ha         1 RG2       0.144000
@<TRIPOS>BOND
     1     1     2 1   
     2     2     3 ar  
     3     2     5 ar  
     4     3     4 ar  
     5     3    27 1   
     6     4     7 ar  
     7     4    28 1   
     8     5     6 ar  
     9     5    29 1   
    10     6     7 ar  
    11     6    30 1   
    12     7     8 1   
    13     8     9 1   
    14     8    31 1   
    15     8    32 1   
    16     9    10 1   
    17     9    33 1   
    18    10    11 ar  
    19    10    19 ar  
    20    11    12 1   
    21    11    15 ar  
    22    12    13 1   
    23    12    14 1   
    24    15    16 ar  
    25    16    17 ar  
    26    16    20 ar  
    27    17    18 ar  
    28    17    34 1   
    29    18    22 ar  
    30    18    35 1   
    31    19    20 ar  
    32    20    21 ar  
    33    21    22 ar  
    34    21    36 1   
    35    22    23 1   
    36    23    24 1   
    37    23    25 1   
    38    23    26 1   
@<TRIPOS>SUBSTRUCTURE
     1 RG2         1 TEMP              0 ****  ****    0 ROOT
