@<TRIPOS>MOLECULE
RG2
   36    38     1     0     0
SMALL
No Charge or Current Charge


@<TRIPOS>ATOM
      1 ClAW        -7.8680    -1.0580    -0.1660 cl         1 RG2      -0.226000
      2 CAV         -6.1100    -1.0550    -0.1150 ca         1 RG2       0.122000
      3 CAY         -5.4450    -1.0050     1.1210 ca         1 RG2      -0.110000
      4 CAZ         -4.0390    -1.0020     1.1620 ca         1 RG2      -0.081000
      5 CAU         -5.3740    -1.1010    -1.3100 ca         1 RG2      -0.110000
      6 CAT         -3.9680    -1.0980    -1.2700 ca         1 RG2      -0.081000
      7 CAS         -3.2930    -1.0500    -0.0330 ca         1 RG2      -0.087300
      8 CAR         -1.7720    -1.0450     0.0100 c3         1 RG2       0.284100
      9 NAQ         -1.2770     0.3330    -0.0700 nu         1 RG2      -0.931100
     10 CAP          0.0320     0.7920    -0.0160 ca         1 RG2       0.602900
     11 CAC          0.4210     2.1710     0.0990 ca         1 RG2       0.244500
     12 CAB         -0.6530     3.2750     0.1790 c          1 RG2       0.622500
     13 OAA         -0.2970     4.4480     0.2390 o          1 RG2      -0.680500
     14 OBA         -1.8410     2.9650     0.1860 o          1 RG2      -0.680500
     15 NAD          1.7570     2.5170     0.1400 nb         1 RG2      -0.603000
     16 CAE          2.6570     1.5020     0.0680 ca         1 RG2       0.183000
     17 CAF          4.0330     1.7940     0.1090 ca         1 RG2      -0.050000
     18 CAG          4.9960     0.7750     0.0370 ca         1 RG2      -0.129000
     19 NAO          0.9270    -0.2160    -0.0870 nb         1 RG2      -0.817000
     20 CAN          2.2420     0.1330    -0.0460 ca         1 RG2       0.283000
     21 CAM          3.2240    -0.8750    -0.1160 ca         1 RG2      -0.061000
     22 CAH          4.6020    -0.5730    -0.0830 ca         1 RG2      -0.194300
     23 CAI          5.6400    -1.7000    -0.1520 c3         1 RG2       0.353300
     24 FAL          6.8440    -1.2730    -0.5950 f          1 RG2      -0.124000
     25 FAJ          5.8410    -2.2560     1.0640 f          1 RG2      -0.124000
     26 FAK          5.2550    -2.6960    -0.9830 f          1 RG2      -0.124000
     27 H1          -6.0170    -0.9680     2.0440 ha         1 RG2       0.121500
     28 H2          -3.5290    -0.9610     2.1230 ha         1 RG2       0.122000
     29 H3          -5.8920    -1.1390    -2.2650 ha         1 RG2       0.121500
     30 H4          -3.4030    -1.1320    -2.1990 ha         1 RG2       0.122000
     31 H5          -1.4320    -1.5170     0.9430 h1         1 RG2       0.046200
     32 H6          -1.3800    -1.6400    -0.8270 h1         1 RG2       0.046200
     33 H7          -1.9630     1.0950     0.0150 hn         1 RG2       0.573000
     34 H9           4.3560     2.8280     0.1990 ha         1 RG2       0.128000
     35 H10          6.0500     1.0420     0.0790 ha         1 RG2       0.114000
     36 H11          2.8990    -1.9090    -0.1960 ha         1 RG2       0.126000
@<TRIPOS>BOND
     1     1     2 1   
     2     2     3 ar  
     3     2     5 ar  
     4     3     4 ar  
     5     3    27 1   
     6     4     7 ar  
     7     4    28 1   
     8     5     6 ar  
     9     5    29 1   
    10     6     7 ar  
    11     6    30 1   
    12     7     8 1   
    13     8     9 1   
    14     8    31 1   
    15     8    32 1   
    16     9    10 1   
    17     9    33 1   
    18    10    11 ar  
    19    10    19 ar  
    20    11    12 1   
    21    11    15 ar  
    22    12    13 1   
    23    12    14 1   
    24    15    16 ar  
    25    16    17 ar  
    26    16    20 ar  
    27    17    18 ar  
    28    17    34 1   
    29    18    22 ar  
    30    18    35 1   
    31    19    20 ar  
    32    20    21 ar  
    33    21    22 ar  
    34    21    36 1   
    35    22    23 1   
    36    23    24 1   
    37    23    25 1   
    38    23    26 1   
@<TRIPOS>SUBSTRUCTURE
     1 RG2         1 TEMP              0 ****  ****    0 ROOT
