@<TRIPOS>MOLECULE
RG3
   55    58     1     0     0
SMALL
No Charge or Current Charge


@<TRIPOS>ATOM
      1 N1         -21.6430     6.8990    30.0550 n          1 RG3      -0.421800
      2 N3         -16.8010     4.4060    26.5360 nb         1 RG3      -0.657000
      3 C4         -22.3020     4.8410    28.7780 c6         1 RG3      -0.112400
      4 C5         -21.0290     4.5130    27.9600 c          1 RG3       0.604100
      5 C6         -18.8600     5.5790    27.1140 ca         1 RG3      -0.111000
      6 C7         -18.0460     4.4220    27.0630 ca         1 RG3       0.367900
      7 C8         -16.3140     5.5620    26.0340 ca         1 RG3       0.386900
      8 C10        -16.4720     7.9400    25.5070 ca         1 RG3       0.038000
      9 C13        -19.0780     7.9860    26.5700 ca         1 RG3      -0.117000
     10 C15        -16.9760    10.5760    23.1060 c3         1 RG3      -0.342100
     11 C17        -22.5830     2.7200    30.1590 ca         1 RG3      -0.104000
     12 C20        -21.7860     4.0270    32.5110 ca         1 RG3      -0.042000
     13 C21        -21.8460     4.7520    31.2990 ca         1 RG3      -0.123600
     14 C22        -21.4760     6.2170    31.2800 c          1 RG3       0.576600
     15 O4         -20.9910     6.7740    32.2550 o          1 RG3      -0.533000
     16 C2         -21.3100     8.3590    29.9700 c3         1 RG3       0.017000
     17 C1         -19.8140     8.7370    29.8590 c          1 RG3       0.575100
     18 O          -19.4490     9.8880    29.6640 o          1 RG3      -0.614100
     19 N          -18.9100     7.7010    29.9610 ns         1 RG3      -0.493900
     20 C          -17.4590     7.8500    29.8290 c3         1 RG3       0.093300
     21 C19        -22.1240     2.6640    32.5440 ca         1 RG3      -0.103000
     22 C18        -22.5230     2.0130    31.3680 ca         1 RG3       0.143000
     23 Cl         -22.9460     0.3060    31.4100 cl         1 RG3      -0.197000
     24 C16        -22.2440     4.0870    30.1130 ca         1 RG3      -0.041300
     25 C3         -22.5640     6.3450    29.0360 c6         1 RG3       0.119000
     26 O1         -20.8510     3.3900    27.5030 o          1 RG3      -0.574100
     27 N2         -20.1470     5.5600    27.7280 ns         1 RG3      -0.168000
     28 C14        -18.3410     6.7820    26.5820 ca         1 RG3       0.030000
     29 C9         -17.0400     6.7670    26.0380 ca         1 RG3      -0.127000
     30 C12        -18.5140     9.1600    26.0440 ca         1 RG3      -0.008000
     31 C11        -17.2080     9.1420    25.5150 ca         1 RG3      -0.276500
     32 S          -16.4860    10.6440    24.8270 sy         1 RG3       1.077500
     33 O2         -17.1650    11.8080    25.4110 o          1 RG3      -0.518000
     34 O3         -15.0230    10.5210    24.8520 o          1 RG3      -0.518000
     35 H1         -23.1410     4.4270    28.2030 hc         1 RG3       0.074700
     36 H2         -18.3790     3.4760    27.4860 h4         1 RG3       0.033100
     37 H3         -15.3080     5.5190    25.6190 h4         1 RG3       0.031100
     38 H4         -15.4650     7.9130    25.0910 ha         1 RG3       0.145000
     39 H5         -20.0900     8.0290    26.9610 ha         1 RG3       0.117000
     40 H6         -18.0700    10.5650    23.0620 h1         1 RG3       0.103700
     41 H7         -16.5760    11.4620    22.6020 h1         1 RG3       0.103700
     42 H8         -16.5620     9.6610    22.6690 h1         1 RG3       0.103700
     43 H9         -22.8890     2.2010    29.2540 ha         1 RG3       0.130000
     44 H10        -21.4790     4.5200    33.4320 ha         1 RG3       0.148000
     45 H11        -21.8130     8.8010    29.1020 h1         1 RG3       0.081200
     46 H12        -21.7000     8.8630    30.8630 h1         1 RG3       0.081200
     47 H13        -19.2900     6.7860    30.1680 hn         1 RG3       0.341500
     48 H14        -16.9900     6.8580    29.8040 h1         1 RG3       0.042700
     49 H15        -17.2230     8.3820    28.8980 h1         1 RG3       0.042700
     50 H16        -17.0670     8.4170    30.6830 h1         1 RG3       0.042700
     51 H17        -22.0780     2.1130    33.4800 ha         1 RG3       0.139000
     52 H18        -22.4900     6.9090    28.0950 h1         1 RG3       0.054200
     53 H19        -23.5930     6.4680    29.4030 h1         1 RG3       0.054200
     54 H20        -20.4480     6.4520    28.0960 hn         1 RG3       0.161000
     55 H21        -19.0990    10.0790    26.0480 ha         1 RG3       0.143000
@<TRIPOS>BOND
     1     1    14 1   
     2     1    16 1   
     3     1    25 1   
     4     2     6 ar  
     5     2     7 ar  
     6     3     4 1   
     7     3    24 1   
     8     3    25 1   
     9     3    35 1   
    10     4    26 2   
    11     4    27 1   
    12     5     6 ar  
    13     5    27 1   
    14     5    28 ar  
    15     6    36 1   
    16     7    29 ar  
    17     7    37 1   
    18     8    29 ar  
    19     8    31 ar  
    20     8    38 1   
    21     9    28 ar  
    22     9    30 ar  
    23     9    39 1   
    24    10    32 1   
    25    10    40 1   
    26    10    41 1   
    27    10    42 1   
    28    11    22 ar  
    29    11    24 ar  
    30    11    43 1   
    31    12    13 ar  
    32    12    21 ar  
    33    12    44 1   
    34    13    14 1   
    35    13    24 ar  
    36    14    15 2   
    37    16    17 1   
    38    16    45 1   
    39    16    46 1   
    40    17    18 2   
    41    17    19 1   
    42    19    20 1   
    43    19    47 1   
    44    20    48 1   
    45    20    49 1   
    46    20    50 1   
    47    21    22 ar  
    48    21    51 1   
    49    22    23 1   
    50    25    52 1   
    51    25    53 1   
    52    27    54 1   
    53    28    29 ar  
    54    30    31 ar  
    55    30    55 1   
    56    31    32 1   
    57    32    33 2   
    58    32    34 2   
@<TRIPOS>SUBSTRUCTURE
     1 RG3         1 TEMP              0 ****  ****    0 ROOT
