@<TRIPOS>MOLECULE
RG3
   55    58     1     0     0
SMALL
abcg2


@<TRIPOS>ATOM
      1 N1         -21.6430     7.0440    30.1670 n          1 RG3      -0.421800
      2 N3         -16.8900     4.0330    25.7470 nb         1 RG3      -0.657000
      3 C4         -21.8770     4.9570    28.8610 c6         1 RG3      -0.112400
      4 C5         -20.4180     4.9230    28.4050 c          1 RG3       0.604100
      5 C6         -18.9370     5.0500    26.4960 ca         1 RG3      -0.111000
      6 C7         -18.1500     3.9560    26.2460 ca         1 RG3       0.367900
      7 C8         -16.3960     5.2250    25.5080 ca         1 RG3       0.386900
      8 C10        -16.5310     7.6930    25.4760 ca         1 RG3       0.038000
      9 C13        -19.1730     7.5380    26.4290 ca         1 RG3      -0.117000
     10 C15        -17.1010    10.9180    23.8510 c3         1 RG3      -0.342100
     11 C17        -22.3610     2.8820    30.2070 ca         1 RG3      -0.104000
     12 C20        -22.0090     4.2900    32.5820 ca         1 RG3      -0.042000
     13 C21        -21.8740     4.9460    31.3590 ca         1 RG3      -0.123600
     14 C22        -21.4970     6.3890    31.3500 c          1 RG3       0.576600
     15 O4         -21.0600     6.9510    32.3550 o          1 RG3      -0.533000
     16 C2         -21.3560     8.4650    30.1130 c3         1 RG3       0.017000
     17 C1         -19.8940     8.8620    29.9030 c          1 RG3       0.575100
     18 O          -19.6060    10.0620    29.8890 o          1 RG3      -0.614100
     19 N          -19.0010     7.8850    29.7370 ns         1 RG3      -0.493900
     20 C          -17.5910     8.1490    29.5150 c3         1 RG3       0.093300
     21 C19        -22.3260     2.9420    32.6300 ca         1 RG3      -0.103000
     22 C18        -22.4960     2.2520    31.4360 ca         1 RG3       0.143000
     23 CL         -22.8910     0.5510    31.4800 cl         1 RG3      -0.197000
     24 C16        -22.0550     4.2360    30.1680 ca         1 RG3      -0.041300
     25 C3         -22.3180     6.4150    29.0310 c6         1 RG3       0.119000
     26 O1         -19.4850     4.9960    29.2000 o          1 RG3      -0.574100
     27 N2         -20.2300     4.8830    27.0670 ns         1 RG3      -0.168000
     28 C14        -18.4380     6.3480    26.2240 ca         1 RG3       0.030000
     29 C9         -17.1090     6.4290    25.7250 ca         1 RG3      -0.127000
     30 C12        -18.5990     8.7550    26.1790 ca         1 RG3      -0.008000
     31 C11        -17.2680     8.8230    25.7130 ca         1 RG3      -0.276500
     32 S          -16.5270    10.4190    25.4540 sy         1 RG3       1.077500
     33 O2         -17.0740    11.3290    26.4440 o          1 RG3      -0.518000
     34 O3         -15.0870    10.2470    25.3980 o          1 RG3      -0.518000
     35 H1         -22.5050     4.5040    28.0940 hc         1 RG3       0.074700
     36 H2         -18.5300     2.9640    26.4580 h4         1 RG3       0.033100
     37 H3         -15.3820     5.2790    25.1230 h4         1 RG3       0.031100
     38 H4         -15.5140     7.7570    25.1140 ha         1 RG3       0.145000
     39 H5         -20.1860     7.4870    26.7950 ha         1 RG3       0.117000
     40 H6         -18.1890    10.9590    23.8690 h1         1 RG3       0.103700
     41 H7         -16.6790    11.9060    23.6650 h1         1 RG3       0.103700
     42 H8         -16.7460    10.1970    23.1170 h1         1 RG3       0.103700
     43 H9         -22.4960     2.3260    29.2890 ha         1 RG3       0.130000
     44 H10        -21.8630     4.8460    33.4970 ha         1 RG3       0.148000
     45 H11        -21.9260     8.9060    29.2970 h1         1 RG3       0.081200
     46 H12        -21.6760     8.9430    31.0380 h1         1 RG3       0.081200
     47 H13        -19.3070     6.9210    29.7350 hn         1 RG3       0.341500
     48 H14        -17.1300     7.2440    29.1270 h1         1 RG3       0.042700
     49 H15        -17.4650     8.9520    28.7910 h1         1 RG3       0.042700
     50 H16        -17.0900     8.4370    30.4420 h1         1 RG3       0.042700
     51 H17        -22.4380     2.4320    33.5770 ha         1 RG3       0.139000
     52 H18        -22.0870     6.9900    28.1380 h1         1 RG3       0.054200
     53 H19        -23.4020     6.4390    29.1740 h1         1 RG3       0.054200
     54 H20        -21.0340     4.8410    26.4560 hn         1 RG3       0.161000
     55 H21        -19.1530     9.6660    26.3580 ha         1 RG3       0.143000
@<TRIPOS>BOND
     1     1    14 1   
     2     1    16 1   
     3     1    25 1   
     4     2     6 ar  
     5     2     7 ar  
     6     3     4 1   
     7     3    24 1   
     8     3    25 1   
     9     3    35 1   
    10     4    26 2   
    11     4    27 1   
    12     5     6 ar  
    13     5    27 1   
    14     5    28 ar  
    15     6    36 1   
    16     7    29 ar  
    17     7    37 1   
    18     8    29 ar  
    19     8    31 ar  
    20     8    38 1   
    21     9    28 ar  
    22     9    30 ar  
    23     9    39 1   
    24    10    32 1   
    25    10    40 1   
    26    10    41 1   
    27    10    42 1   
    28    11    22 ar  
    29    11    24 ar  
    30    11    43 1   
    31    12    13 ar  
    32    12    21 ar  
    33    12    44 1   
    34    13    14 1   
    35    13    24 ar  
    36    14    15 2   
    37    16    17 1   
    38    16    45 1   
    39    16    46 1   
    40    17    18 2   
    41    17    19 1   
    42    19    20 1   
    43    19    47 1   
    44    20    48 1   
    45    20    49 1   
    46    20    50 1   
    47    21    22 ar  
    48    21    51 1   
    49    22    23 1   
    50    25    52 1   
    51    25    53 1   
    52    27    54 1   
    53    28    29 ar  
    54    30    31 ar  
    55    30    55 1   
    56    31    32 1   
    57    32    33 2   
    58    32    34 2   
@<TRIPOS>SUBSTRUCTURE
     1 RG3         1 TEMP              0 ****  ****    0 ROOT
