@<TRIPOS>MOLECULE
RG4
   41    44     1     0     0
SMALL
bcc


@<TRIPOS>ATOM
      1 C13         21.5900    12.3500    54.6980 cc         1 RG4      -0.348800
      2 C20         24.3290    13.1650    56.3440 cc         1 RG4      -0.163200
      3 C21         24.9920    13.8380    57.3270 cd         1 RG4      -0.112100
      4 C03         22.5150    11.1060    50.6380 c3         1 RG4      -0.034300
      5 C04         22.4500    10.2300    51.9000 c3         1 RG4       0.082000
      6 C05         23.7730     9.5650    52.2500 c5         1 RG4      -0.088700
      7 C06         23.7010     8.6070    53.4390 c5         1 RG4      -0.076400
      8 C07         24.9930     7.8000    53.3150 c5         1 RG4      -0.078400
      9 C08         25.2450     7.6670    51.7990 c5         1 RG4      -0.078400
     10 C09         24.2870     8.6640    51.1190 c5         1 RG4      -0.076400
     11 C12         20.3720    11.9070    54.1360 cc         1 RG4       0.363200
     12 C14         21.7370    13.2420    55.8340 ca         1 RG4       0.608800
     13 C16         20.6800    14.6360    57.3270 ca         1 RG4       0.669900
     14 C18         22.8670    14.4280    57.5530 ca         1 RG4       0.454800
     15 C19         22.9530    13.5300    56.4650 ca         1 RG4      -0.321400
     16 C23         22.5530    11.7340    53.9190 cd         1 RG4      -0.087300
     17 N01         24.2820    13.0080    50.8380 n1         1 RG4      -0.363800
     18 N10         21.9020    10.9970    53.0070 na         1 RG4       0.103400
     19 N11         20.5760    11.0990    53.1220 nd         1 RG4      -0.541800
     20 N15         20.6170    13.8070    56.2890 nb         1 RG4      -0.748000
     21 N17         21.7560    14.9950    58.0030 nb         1 RG4      -0.725000
     22 N22         24.1120    14.5980    58.0510 na         1 RG4      -0.271100
     23 H2          26.0410    13.8350    57.5740 h4         1 RG4       0.167000
     24 H3          21.5390    11.5530    50.4420 hc         1 RG4       0.088700
     25 H4          22.7600    10.4890    49.7720 hc         1 RG4       0.088700
     26 H5          21.7150     9.4490    51.6940 h1         1 RG4       0.091700
     27 H6          24.5350    10.3260    52.4560 hc         1 RG4       0.062700
     28 H7          23.6120     9.1100    54.4020 hc         1 RG4       0.049200
     29 H8          22.8270     7.9570    53.3270 hc         1 RG4       0.049200
     30 H9          24.9280     6.8340    53.8160 hc         1 RG4       0.045950
     31 H10         25.8100     8.3480    53.7860 hc         1 RG4       0.045950
     32 H11         25.0550     6.6520    51.4490 hc         1 RG4       0.045950
     33 H12         26.2850     7.8890    51.5560 hc         1 RG4       0.045950
     34 H13         24.7670     9.2290    50.3200 hc         1 RG4       0.049200
     35 H14         23.4420     8.1310    50.6710 hc         1 RG4       0.049200
     36 H15         19.3690    12.1480    54.4550 h4         1 RG4       0.056100
     37 H16         19.7390    15.0650    57.6520 h5         1 RG4       0.047100
     38 H17         23.6280    11.7740    53.9500 h4         1 RG4       0.179000
     39 H18         24.3520    15.1840    58.8360 hn         1 RG4       0.313700
     40 H1          24.7910    12.4940    55.6410 ha         1 RG4       0.154000
     41 C02         23.5000    12.1690    50.7430 c1         1 RG4       0.205700
@<TRIPOS>BOND
     1     1    11 1   
     2     1    12 1   
     3     1    16 2   
     4     2     3 2   
     5     2    15 1   
     6     2    40 1   
     7     3    22 1   
     8     3    23 1   
     9     4     5 1   
    10     4    24 1   
    11     4    25 1   
    12     4    41 1   
    13     5     6 1   
    14     5    18 1   
    15     5    26 1   
    16     6     7 1   
    17     6    10 1   
    18     6    27 1   
    19     7     8 1   
    20     7    28 1   
    21     7    29 1   
    22     8     9 1   
    23     8    30 1   
    24     8    31 1   
    25     9    10 1   
    26     9    32 1   
    27     9    33 1   
    28    10    34 1   
    29    10    35 1   
    30    11    19 2   
    31    11    36 1   
    32    12    15 ar  
    33    12    20 ar  
    34    13    20 ar  
    35    13    21 ar  
    36    13    37 1   
    37    14    15 ar  
    38    14    21 ar  
    39    14    22 1   
    40    16    18 1   
    41    16    38 1   
    42    17    41 3   
    43    18    19 1   
    44    22    39 1   
@<TRIPOS>SUBSTRUCTURE
     1 RG4         1 TEMP              0 ****  ****    0 ROOT
