@<TRIPOS>MOLECULE
RG4
   41    44     1     0     0
SMALL
No Charge or Current Charge


@<TRIPOS>ATOM
      1 C13         21.4470    12.2580    54.7710 cc         1 RG4      -0.283500
      2 C20         24.1040    12.6540    56.4980 cc         1 RG4      -0.213200
      3 C21         24.9610    13.2520    57.4070 cd         1 RG4      -0.162100
      4 C03         22.4200    11.1520    50.5940 c3         1 RG4      -0.034300
      5 C04         22.3890    10.2760    51.8770 c3         1 RG4       0.111300
      6 C05         23.7510     9.5990    52.2330 c5         1 RG4      -0.088700
      7 C06         23.6860     8.6090    53.4270 c5         1 RG4      -0.076400
      8 C07         25.1110     7.9920    53.4060 c5         1 RG4      -0.078400
      9 C08         25.5030     7.9570    51.8940 c5         1 RG4      -0.078400
     10 C09         24.3110     8.6320    51.1540 c5         1 RG4      -0.076400
     11 C12         20.2490    11.7060    54.3010 cc         1 RG4       0.297900
     12 C14         21.6580    13.2420    55.8300 ca         1 RG4       0.280500
     13 C16         20.8710    15.0600    57.0170 ca         1 RG4       0.143900
     14 C18         23.0230    14.4140    57.4450 ca         1 RG4       0.126500
     15 C19         22.8810    13.4070    56.5180 ca         1 RG4      -0.190800
     16 C23         22.4290    11.8540    53.9170 cd         1 RG4      -0.120000
     17 N01         24.0470    13.2150    50.7560 n1         1 RG4      -0.453000
     18 N10         21.7740    11.0070    53.0120 na         1 RG4       0.124800
     19 N11         20.4050    10.9280    53.2480 nd         1 RG4      -0.541800
     20 N15         20.6450    14.1000    56.0890 nb         1 RG4      -0.222000
     21 N17         22.0140    15.2640    57.7110 nb         1 RG4      -0.199000
     22 N22         24.2950    14.3560    57.9930 na         1 RG4      -0.321400
     23 H2          25.9750    12.9710    57.6860 h4         1 RG4       0.217000
     24 H3          21.4090    11.5180    50.3820 hc         1 RG4       0.088700
     25 H4          22.7130    10.5430    49.7330 hc         1 RG4       0.088700
     26 H5          21.7000     9.4500    51.6560 h1         1 RG4       0.091700
     27 H6          24.4730    10.3990    52.4420 hc         1 RG4       0.062700
     28 H7          23.4700     9.1050    54.3800 hc         1 RG4       0.049200
     29 H8          22.9140     7.8430    53.2790 hc         1 RG4       0.049200
     30 H9          25.1290     6.9960    53.8630 hc         1 RG4       0.045950
     31 H10         25.8140     8.6140    53.9730 hc         1 RG4       0.045950
     32 H11         25.6700     6.9350    51.5350 hc         1 RG4       0.045950
     33 H12         26.4350     8.5090    51.7250 hc         1 RG4       0.045950
     34 H13         24.6410     9.1510    50.2470 hc         1 RG4       0.049200
     35 H14         23.5630     7.8910    50.8480 hc         1 RG4       0.049200
     36 H15         19.2540    11.8560    54.7000 h4         1 RG4       0.056100
     37 H16         20.0480    15.7430    57.2210 h5         1 RG4       0.047100
     38 H17         23.4820    12.0990    53.8510 h4         1 RG4       0.161000
     39 H18         24.6670    14.9850    58.6980 hn         1 RG4       0.364000
     40 H1          24.3300    11.7570    55.9260 ha         1 RG4       0.204000
     41 C02         23.3190    12.3100    50.6730 c1         1 RG4       0.294900
@<TRIPOS>BOND
     1     1    11 1   
     2     1    12 1   
     3     1    16 2   
     4     2     3 2   
     5     2    15 1   
     6     2    40 1   
     7     3    22 1   
     8     3    23 1   
     9     4     5 1   
    10     4    24 1   
    11     4    25 1   
    12     4    41 1   
    13     5     6 1   
    14     5    18 1   
    15     5    26 1   
    16     6     7 1   
    17     6    10 1   
    18     6    27 1   
    19     7     8 1   
    20     7    28 1   
    21     7    29 1   
    22     8     9 1   
    23     8    30 1   
    24     8    31 1   
    25     9    10 1   
    26     9    32 1   
    27     9    33 1   
    28    10    34 1   
    29    10    35 1   
    30    11    19 2   
    31    11    36 1   
    32    12    15 ar  
    33    12    20 ar  
    34    13    20 ar  
    35    13    21 ar  
    36    13    37 1   
    37    14    15 ar  
    38    14    21 ar  
    39    14    22 1   
    40    16    18 1   
    41    16    38 1   
    42    17    41 3   
    43    18    19 1   
    44    22    39 1   
@<TRIPOS>SUBSTRUCTURE
     1 RG4         1 TEMP              0 ****  ****    0 ROOT
