@<TRIPOS>MOLECULE
RG5
   38    42     1     0     0
SMALL
abcg2


@<TRIPOS>ATOM
      1 N1         -47.5740   -29.0990     6.6080 na         1 RG5      -0.330300
      2 C15        -50.2480   -29.1710     3.4630 ca         1 RG5      -0.172000
      3 C14        -48.8730   -29.1910     3.2690 ca         1 RG5      -0.041000
      4 C13        -48.0180   -29.2090     4.3740 cp         1 RG5      -0.066000
      5 C12        -44.1770   -28.8200     5.6970 ca         1 RG5       0.179900
      6 C11        -44.2140   -29.1250     1.6650 c6         1 RG5       0.191800
      7 C10        -45.2850   -27.6160    -0.0440 cc         1 RG5       0.369800
      8 C9         -44.5710   -28.9190     0.1970 c6         1 RG5       0.133000
      9 C8         -46.4920   -30.3130     0.4340 c6         1 RG5       0.142600
     10 C7         -46.1420   -30.5580     1.8860 c6         1 RG5       0.168800
     11 C6         -45.4150   -29.1880     3.7840 ca         1 RG5       0.413900
     12 C5         -46.5830   -29.1870     4.5690 cp         1 RG5      -0.206000
     13 C4         -46.3700   -29.0710     5.9630 ca         1 RG5       0.190500
     14 C3         -48.5910   -29.1620     5.6760 ca         1 RG5       0.010800
     15 C2         -49.9640   -29.1510     5.8920 ca         1 RG5      -0.173000
     16 C1         -50.7530   -29.1620     4.7590 ca         1 RG5       0.192000
     17 O1         -45.3240   -30.0010    -0.3390 os         1 RG5      -0.460000
     18 F1         -52.1020   -29.1500     4.9200 f          1 RG5      -0.180000
     19 N2         -45.4300   -29.3940     2.4230 nh         1 RG5      -0.761300
     20 N3         -46.0830   -27.3770    -1.0930 na         1 RG5      -0.218700
     21 N4         -46.5220   -26.1130    -1.0350 nc         1 RG5      -0.199800
     22 N5         -45.9920   -25.5980     0.0200 nd         1 RG5      -0.042000
     23 N6         -44.2270   -28.9580     4.3720 nb         1 RG5      -0.272000
     24 N7         -45.1880   -28.9020     6.5590 nb         1 RG5      -0.220000
     25 N8         -45.2180   -26.5060     0.6650 nd         1 RG5      -0.374000
     26 H3         -47.6940   -28.9860     7.6030 hn         1 RG5       0.371000
     27 H12        -50.9310   -29.1560     2.6250 ha         1 RG5       0.135000
     28 H11        -48.4850   -29.1710     2.2620 ha         1 RG5       0.121000
     29 H10        -43.1950   -28.6370     6.1210 h5         1 RG5       0.053100
     30 H9         -43.5090   -29.9610     1.7330 h1         1 RG5       0.081200
     31 H8         -43.7280   -28.2350     2.0530 h1         1 RG5       0.081200
     32 H1         -43.6440   -28.8980    -0.3800 h1         1 RG5       0.100700
     33 H7         -47.2200   -29.4990     0.3540 h1         1 RG5       0.060700
     34 H6         -46.9160   -31.2090    -0.0150 h1         1 RG5       0.060700
     35 H5         -47.0430   -30.7550     2.4580 h1         1 RG5       0.063200
     36 H4         -45.4950   -31.4420     1.9680 h1         1 RG5       0.063200
     37 H2         -50.3980   -29.1190     6.8820 ha         1 RG5       0.140000
     38 H13        -46.3710   -28.0000    -1.8360 hn         1 RG5       0.391000
@<TRIPOS>BOND
     1     1    13 1   
     2     1    14 1   
     3     1    26 1   
     4     2     3 ar  
     5     2    16 ar  
     6     2    27 1   
     7     3     4 ar  
     8     3    28 1   
     9     4    12 1   
    10     4    14 ar  
    11     5    23 ar  
    12     5    24 ar  
    13     5    29 1   
    14     6     8 1   
    15     6    19 1   
    16     6    30 1   
    17     6    31 1   
    18     7     8 1   
    19     7    20 1   
    20     7    25 2   
    21     8    17 1   
    22     8    32 1   
    23     9    10 1   
    24     9    17 1   
    25     9    33 1   
    26     9    34 1   
    27    10    19 1   
    28    10    35 1   
    29    10    36 1   
    30    11    12 ar  
    31    11    19 1   
    32    11    23 ar  
    33    12    13 ar  
    34    13    24 ar  
    35    14    15 ar  
    36    15    16 ar  
    37    15    37 1   
    38    16    18 1   
    39    20    21 1   
    40    20    38 1   
    41    21    22 2   
    42    22    25 1   
@<TRIPOS>SUBSTRUCTURE
     1 RG5         1 TEMP              0 ****  ****    0 ROOT
