@<TRIPOS>MOLECULE
RG5
   38    42     1     0     0
SMALL
No Charge or Current Charge


@<TRIPOS>ATOM
      1 N1         -47.6230   -29.1260     6.6200 na         1 RG5      -0.330300
      2 C15        -49.9960   -28.7820     3.2370 ca         1 RG5      -0.172000
      3 C14        -48.5930   -28.9430     3.1930 ca         1 RG5      -0.041000
      4 C13        -47.8970   -29.0870     4.4100 cp         1 RG5      -0.066000
      5 C12        -44.0670   -29.4070     5.8670 ca         1 RG5       0.179900
      6 C11        -44.2590   -28.8300     1.6990 c6         1 RG5       0.191800
      7 C10        -45.6970   -27.5690     0.0070 cc         1 RG5       0.369800
      8 C9         -44.6700   -28.6770     0.2010 c6         1 RG5       0.133000
      9 C8         -46.2190   -30.5540     0.4090 c6         1 RG5       0.142600
     10 C7         -45.8650   -30.7300     1.9140 c6         1 RG5       0.168800
     11 C6         -45.3220   -29.3600     3.9240 ca         1 RG5       0.413900
     12 C5         -46.4770   -29.2390     4.7260 cp         1 RG5      -0.206000
     13 C4         -46.3190   -29.2330     6.1150 ca         1 RG5       0.190500
     14 C3         -48.5900   -29.0290     5.6130 ca         1 RG5       0.010800
     15 C2         -49.9750   -28.8640     5.6930 ca         1 RG5      -0.173000
     16 C1         -50.6770   -28.7490     4.4770 ca         1 RG5       0.192000
     17 O1         -45.1090   -29.9680    -0.3220 os         1 RG5      -0.460000
     18 F1         -52.0180   -28.5860     4.4960 f          1 RG5      -0.180000
     19 N2         -45.3440   -29.4640     2.5190 nh         1 RG5      -0.761300
     20 N3         -46.6080   -27.5140    -1.0120 na         1 RG5      -0.218700
     21 N4         -47.3580   -26.3880    -0.9350 nc         1 RG5      -0.199800
     22 N5         -46.8940   -25.7640     0.1120 nd         1 RG5      -0.042000
     23 N6         -44.1070   -29.4380     4.5120 nb         1 RG5      -0.272000
     24 N7         -45.1210   -29.3160     6.7110 nb         1 RG5      -0.220000
     25 N8         -45.8640   -26.4570     0.7010 nd         1 RG5      -0.374000
     26 H3         -47.8330   -29.1110     7.6110 hn         1 RG5       0.371000
     27 H12        -50.5580   -28.6720     2.3130 ha         1 RG5       0.135000
     28 H11        -48.0660   -28.9390     2.2440 ha         1 RG5       0.121000
     29 H10        -43.0820   -29.4720     6.3250 h5         1 RG5       0.053100
     30 H9         -43.3480   -29.4450     1.7460 h1         1 RG5       0.081200
     31 H8         -43.9940   -27.8410     2.1050 h1         1 RG5       0.081200
     32 H1         -43.7680   -28.3860    -0.3550 h1         1 RG5       0.100700
     33 H7         -47.1070   -29.9160     0.3070 h1         1 RG5       0.060700
     34 H6         -46.4600   -31.5320    -0.0300 h1         1 RG5       0.060700
     35 H5         -46.7640   -31.0720     2.4480 h1         1 RG5       0.063200
     36 H4         -45.1120   -31.5260     2.0080 h1         1 RG5       0.063200
     37 H2         -50.4900   -28.8190     6.6480 ha         1 RG5       0.140000
     38 H13        -46.7330   -28.2030    -1.7450 hn         1 RG5       0.391000
@<TRIPOS>BOND
     1     1    13 1   
     2     1    14 1   
     3     1    26 1   
     4     2     3 ar  
     5     2    16 ar  
     6     2    27 1   
     7     3     4 ar  
     8     3    28 1   
     9     4    12 1   
    10     4    14 ar  
    11     5    23 ar  
    12     5    24 ar  
    13     5    29 1   
    14     6     8 1   
    15     6    19 1   
    16     6    30 1   
    17     6    31 1   
    18     7     8 1   
    19     7    20 1   
    20     7    25 2   
    21     8    17 1   
    22     8    32 1   
    23     9    10 1   
    24     9    17 1   
    25     9    33 1   
    26     9    34 1   
    27    10    19 1   
    28    10    35 1   
    29    10    36 1   
    30    11    12 ar  
    31    11    19 1   
    32    11    23 ar  
    33    12    13 ar  
    34    13    24 ar  
    35    14    15 ar  
    36    15    16 ar  
    37    15    37 1   
    38    16    18 1   
    39    20    21 1   
    40    20    38 1   
    41    21    22 2   
    42    22    25 1   
@<TRIPOS>SUBSTRUCTURE
     1 RG5         1 TEMP              0 ****  ****    0 ROOT
