@<TRIPOS>MOLECULE
RG6
   21    21     1     0     0
SMALL
No Charge or Current Charge


@<TRIPOS>ATOM
      1 C11          5.6880     7.0320    20.4350 ca         1 RG6      -0.201000
      2 C15          4.9240     7.2750    23.2620 c3         1 RG6       0.408000
      3 C1           1.5700     4.9690    19.6760 c3         1 RG6       0.407000
      4 S2           3.0900     4.2670    18.8870 ss         1 RG6      -0.131000
      5 F3           0.5170     4.1320    19.5450 f          1 RG6      -0.096333
      6 F4           1.7400     5.1900    20.9980 f          1 RG6      -0.096333
      7 F5           1.2160     6.1470    19.1140 f          1 RG6      -0.096333
      8 C6           4.3080     5.5820    19.0280 ca         1 RG6      -0.205000
      9 C7           4.8380     6.1980    17.8770 ca         1 RG6       0.248100
     10 C8           4.7420     5.9930    20.3030 ca         1 RG6       0.054000
     11 C9           5.7930     7.2260    18.0050 ca         1 RG6      -0.017000
     12 O10          4.4230     5.8000    16.6380 oh         1 RG6      -0.490100
     13 C12          6.2140     7.6390    19.2790 ca         1 RG6       0.040000
     14 Cl13         6.4700     8.0110    16.5760 cl         1 RG6      -0.184000
     15 S14          6.2770     7.6100    22.0380 ss         1 RG6      -0.152000
     16 F16          5.1450     7.9330    24.4210 f          1 RG6      -0.095667
     17 F17          4.8300     5.9620    23.5690 f          1 RG6      -0.095667
     18 F18          3.7160     7.6740    22.8030 f          1 RG6      -0.095667
     19 H19          4.3470     5.4890    21.1800 ha         1 RG6       0.154000
     20 H20          4.9050     6.3410    15.9780 ho         1 RG6       0.491000
     21 H21          6.9500     8.4350    19.3690 ha         1 RG6       0.152000
@<TRIPOS>BOND
     1     1    10 ar  
     2     1    13 ar  
     3     1    15 1   
     4     2    15 1   
     5     2    16 1   
     6     2    17 1   
     7     2    18 1   
     8     3     4 1   
     9     3     5 1   
    10     3     6 1   
    11     3     7 1   
    12     4     8 1   
    13     8     9 ar  
    14     8    10 ar  
    15     9    11 ar  
    16     9    12 1   
    17    10    19 1   
    18    11    13 ar  
    19    11    14 1   
    20    12    20 1   
    21    13    21 1   
@<TRIPOS>SUBSTRUCTURE
     1 RG6         1 TEMP              0 ****  ****    0 ROOT
