@<TRIPOS>MOLECULE
RG6
   21    21     1     0     0
SMALL
abcg2


@<TRIPOS>ATOM
      1 C11          4.8700     7.3460    20.7530 ca         1 RG6      -0.201000
      2 C15          6.0970     7.2410    23.2020 c3         1 RG6       0.408000
      3 C1           1.2320     5.2810    18.6820 c3         1 RG6       0.407000
      4 S2           2.6480     4.3070    19.2760 ss         1 RG6      -0.131000
      5 F3           0.2280     4.4300    18.4160 f          1 RG6      -0.096333
      6 F4           0.7810     6.1720    19.5850 f          1 RG6      -0.096333
      7 F5           1.4980     5.9750    17.5620 f          1 RG6      -0.096333
      8 C6           3.8410     5.6160    19.4220 ca         1 RG6      -0.205000
      9 C7           4.7110     5.8990    18.3540 ca         1 RG6       0.248100
     10 C8           3.9290     6.3330    20.6090 ca         1 RG6       0.054000
     11 C9           5.6470     6.9310    18.5220 ca         1 RG6      -0.017000
     12 O10          4.6150     5.1890    17.2240 oh         1 RG6      -0.490100
     13 C12          5.7290     7.6510    19.6980 ca         1 RG6       0.040000
     14 CL13         6.7190     7.2990    17.1970 cl         1 RG6      -0.184000
     15 S14          4.9460     8.2850    22.2600 ss         1 RG6      -0.152000
     16 F16          6.2510     7.7900    24.4180 f          1 RG6      -0.095667
     17 F17          7.3150     7.1460    22.6370 f          1 RG6      -0.095667
     18 F18          5.6570     5.9800    23.3710 f          1 RG6      -0.095667
     19 H19          3.2560     6.0960    21.4210 ha         1 RG6       0.154000
     20 H20          5.2720     5.4950    16.5780 ho         1 RG6       0.491000
     21 H21          6.4610     8.4410    19.7950 ha         1 RG6       0.152000
@<TRIPOS>BOND
     1     1    10 ar  
     2     1    13 ar  
     3     1    15 1   
     4     2    15 1   
     5     2    16 1   
     6     2    17 1   
     7     2    18 1   
     8     3     4 1   
     9     3     5 1   
    10     3     6 1   
    11     3     7 1   
    12     4     8 1   
    13     8     9 ar  
    14     8    10 ar  
    15     9    11 ar  
    16     9    12 1   
    17    10    19 1   
    18    11    13 ar  
    19    11    14 1   
    20    12    20 1   
    21    13    21 1   
@<TRIPOS>SUBSTRUCTURE
     1 RG6         1 TEMP              0 ****  ****    0 ROOT
