@<TRIPOS>MOLECULE
RG9
   44    46     1     0     0
SMALL
No Charge or Current Charge


@<TRIPOS>ATOM
      1 N1         -15.4190     4.5240    27.6850 nb         1 RG9      -0.642000
      2 C4         -18.3010     8.3990    26.1190 ca         1 RG9      -0.082000
      3 C5         -18.4520     7.4410    27.1360 ca         1 RG9      -0.112000
      4 C6         -17.4620     6.4580    27.3480 ca         1 RG9      -0.032000
      5 C7         -17.5700     5.4690    28.3560 ca         1 RG9      -0.073000
      6 C8         -19.1890     4.4980    30.1010 c          1 RG9       0.601100
      7 C10        -21.6960     4.3160    30.1900 ca         1 RG9      -0.069300
      8 C13        -23.9730     3.2030    28.9520 ca         1 RG9      -0.095000
      9 C15        -22.3690     5.0220    29.1730 ca         1 RG9      -0.096000
     10 C17        -15.3340     5.4700    26.7240 ca         1 RG9       0.343900
     11 C14        -23.5030     4.4660    28.5570 ca         1 RG9       0.126000
     12 C12        -23.3060     2.4930    29.9650 ca         1 RG9      -0.099000
     13 C11        -22.1700     3.0480    30.5810 ca         1 RG9      -0.086000
     14 C9         -20.4590     4.9140    30.8530 c3         1 RG9      -0.108100
     15 O1         -18.6770     3.3960    30.2590 o          1 RG9      -0.564100
     16 N          -18.7090     5.4550    29.2160 ns         1 RG9      -0.154000
     17 C16        -16.5150     4.5300    28.4800 ca         1 RG9       0.320900
     18 C18        -16.3220     6.4510    26.5200 ca         1 RG9      -0.083000
     19 C19        -16.1730     7.4120    25.5030 ca         1 RG9      -0.069000
     20 C3         -17.1560     8.4040    25.2870 ca         1 RG9      -0.110300
     21 C1         -16.9540     9.4330    24.1520 c3         1 RG9       0.226300
     22 O          -15.6490     9.9960    24.2810 oh         1 RG9      -0.660000
     23 C2         -17.9510    10.6170    24.1850 c3         1 RG9      -0.098100
     24 C          -17.0240     8.7270    22.7790 c3         1 RG9      -0.098100
     25 H1         -19.0940     9.1300    25.9920 ha         1 RG9       0.113000
     26 H2         -19.3500     7.4750    27.7470 ha         1 RG9       0.108000
     27 H3         -24.8510     2.7760    28.4730 ha         1 RG9       0.132000
     28 H4         -22.0170     6.0010    28.8560 ha         1 RG9       0.127000
     29 H5         -14.4410     5.4400    26.0990 h4         1 RG9       0.023100
     30 H6         -23.6670     1.5140    30.2710 ha         1 RG9       0.121000
     31 H7         -21.6570     2.4900    31.3620 ha         1 RG9       0.120000
     32 H8         -20.3880     4.5580    31.8880 hc         1 RG9       0.067200
     33 H9         -20.5480     6.0070    30.8510 hc         1 RG9       0.067200
     34 H10        -19.2650     6.2990    29.1770 hn         1 RG9       0.151000
     35 H11        -16.5210     3.7610    29.2490 h4         1 RG9       0.045100
     36 H12        -15.2840     7.3880    24.8750 ha         1 RG9       0.127000
     37 H13        -15.5670    10.2890    25.2140 ho         1 RG9       0.442000
     38 H14        -17.9310    11.1240    25.1570 hc         1 RG9       0.046700
     39 H15        -17.7010    11.3570    23.4150 hc         1 RG9       0.046700
     40 H16        -18.9750    10.2750    23.9910 hc         1 RG9       0.046700
     41 H17        -18.0050     8.2600    22.6370 hc         1 RG9       0.046700
     42 H18        -16.8650     9.4420    21.9620 hc         1 RG9       0.046700
     43 H19        -16.2600     7.9450    22.6940 hc         1 RG9       0.046700
     44 Cl         -24.3360     5.3550    27.2880 cl         1 RG9      -0.211000
@<TRIPOS>BOND
     1     1    10 ar  
     2     1    17 ar  
     3     2     3 ar  
     4     2    20 ar  
     5     2    25 1   
     6     3     4 ar  
     7     3    26 1   
     8     4     5 ar  
     9     4    18 ar  
    10     5    16 1   
    11     5    17 ar  
    12     6    14 1   
    13     6    15 2   
    14     6    16 1   
    15     7     9 ar  
    16     7    13 ar  
    17     7    14 1   
    18     8    11 ar  
    19     8    12 ar  
    20     8    27 1   
    21     9    11 ar  
    22     9    28 1   
    23    10    18 ar  
    24    10    29 1   
    25    11    44 1   
    26    12    13 ar  
    27    12    30 1   
    28    13    31 1   
    29    14    32 1   
    30    14    33 1   
    31    16    34 1   
    32    17    35 1   
    33    18    19 ar  
    34    19    20 ar  
    35    19    36 1   
    36    20    21 1   
    37    21    22 1   
    38    21    23 1   
    39    21    24 1   
    40    22    37 1   
    41    23    38 1   
    42    23    39 1   
    43    23    40 1   
    44    24    41 1   
    45    24    42 1   
    46    24    43 1   
@<TRIPOS>SUBSTRUCTURE
     1 RG9         1 TEMP              0 ****  ****    0 ROOT
