@<TRIPOS>MOLECULE
RG9
   44    46     1     0     0
SMALL
abcg2


@<TRIPOS>ATOM
      1 N1         -16.3130     4.2320    26.9570 nb         1 RG9      -0.642000
      2 C4         -18.0170     8.8110    25.7830 ca         1 RG9      -0.082000
      3 C5         -18.5650     7.7860    26.5080 ca         1 RG9      -0.112000
      4 C6         -17.8610     6.5700    26.6750 ca         1 RG9      -0.032000
      5 C7         -18.3410     5.4470    27.4080 ca         1 RG9      -0.073000
      6 C8         -20.0140     4.9590    29.1720 c          1 RG9       0.601100
      7 C10        -22.1910     4.0420    30.0230 ca         1 RG9      -0.069300
      8 C13        -23.5200     1.7160    30.8530 ca         1 RG9      -0.095000
      9 C15        -22.6730     3.1340    29.0800 ca         1 RG9      -0.096000
     10 C17        -15.8560     5.2530    26.2690 ca         1 RG9       0.343900
     11 C14        -23.3260     1.9880    29.5060 ca         1 RG9       0.126000
     12 C12        -23.0400     2.6260    31.7880 ca         1 RG9      -0.099000
     13 C11        -22.3800     3.7790    31.3780 ca         1 RG9      -0.086000
     14 C9         -21.4540     5.2730    29.5630 c3         1 RG9      -0.108100
     15 O1         -19.2810     4.2940    29.8890 o          1 RG9      -0.564100
     16 N          -19.6240     5.5020    27.9830 ns         1 RG9      -0.154000
     17 C16        -17.5450     4.3270    27.5130 ca         1 RG9       0.320900
     18 C18        -16.5770     6.4550    26.0810 ca         1 RG9      -0.083000
     19 C19        -16.0420     7.5320    25.3350 ca         1 RG9      -0.069000
     20 C3         -16.7380     8.7040    25.1780 ca         1 RG9      -0.110300
     21 C1         -16.1760     9.8800    24.3800 c3         1 RG9       0.226300
     22 O          -14.8670     9.5780    23.8770 oh         1 RG9      -0.660000
     23 C2         -16.0970    11.1340    25.2570 c3         1 RG9      -0.098100
     24 C          -17.0330    10.1310    23.1400 c3         1 RG9      -0.098100
     25 H1         -18.5800     9.7290    25.6750 ha         1 RG9       0.113000
     26 H2         -19.5380     7.9250    26.9600 ha         1 RG9       0.108000
     27 H3         -24.0370     0.8170    31.1620 ha         1 RG9       0.132000
     28 H4         -22.5370     3.3210    28.0220 ha         1 RG9       0.127000
     29 H5         -14.8700     5.1560    25.8230 h4         1 RG9       0.023100
     30 H6         -23.1860     2.4310    32.8430 ha         1 RG9       0.121000
     31 H7         -22.0110     4.4810    32.1150 ha         1 RG9       0.120000
     32 H8         -21.4010     6.0010    30.3760 hc         1 RG9       0.067200
     33 H9         -21.9830     5.7440    28.7340 hc         1 RG9       0.067200
     34 H10        -20.3080     6.0670    27.5050 hn         1 RG9       0.151000
     35 H11        -17.8950     3.4650    28.0590 h4         1 RG9       0.045100
     36 H12        -15.0660     7.4100    24.8860 ha         1 RG9       0.127000
     37 H13        -14.2480     9.5560    24.6190 ho         1 RG9       0.442000
     38 H14        -15.4500    10.9520    26.1190 hc         1 RG9       0.046700
     39 H15        -15.6850    11.9580    24.6740 hc         1 RG9       0.046700
     40 H16        -17.0800    11.4280    25.6250 hc         1 RG9       0.046700
     41 H17        -18.0600    10.3670    23.4180 hc         1 RG9       0.046700
     42 H18        -16.6230    10.9700    22.5760 hc         1 RG9       0.046700
     43 H19        -17.0410     9.2450    22.5020 hc         1 RG9       0.046700
     44 CL         -23.9260     0.8550    28.3100 cl         1 RG9      -0.211000
@<TRIPOS>BOND
     1     1    10 ar  
     2     1    17 ar  
     3     2     3 ar  
     4     2    20 ar  
     5     2    25 1   
     6     3     4 ar  
     7     3    26 1   
     8     4     5 ar  
     9     4    18 ar  
    10     5    16 1   
    11     5    17 ar  
    12     6    14 1   
    13     6    15 2   
    14     6    16 1   
    15     7     9 ar  
    16     7    13 ar  
    17     7    14 1   
    18     8    11 ar  
    19     8    12 ar  
    20     8    27 1   
    21     9    11 ar  
    22     9    28 1   
    23    10    18 ar  
    24    10    29 1   
    25    11    44 1   
    26    12    13 ar  
    27    12    30 1   
    28    13    31 1   
    29    14    32 1   
    30    14    33 1   
    31    16    34 1   
    32    17    35 1   
    33    18    19 ar  
    34    19    20 ar  
    35    19    36 1   
    36    20    21 1   
    37    21    22 1   
    38    21    23 1   
    39    21    24 1   
    40    22    37 1   
    41    23    38 1   
    42    23    39 1   
    43    23    40 1   
    44    24    41 1   
    45    24    42 1   
    46    24    43 1   
@<TRIPOS>SUBSTRUCTURE
     1 RG9         1 TEMP              0 ****  ****    0 ROOT
