@<TRIPOS>MOLECULE
RGC
  149   150     1     0     0
SMALL
No Charge or Current Charge


@<TRIPOS>ATOM
      1 O1           1.7460    -3.6730    -4.5800 o          1 RGC      -0.427000
      2 C1           2.3860    -3.8390    -3.5530 c          1 RGC       0.588300
      3 O25          2.3000    -3.0620    -2.4280 os         1 RGC      -0.474100
      4 C2           3.4920    -4.8200    -3.4140 ce         1 RGC      -0.309200
      5 C3           3.9560    -5.6190    -4.4160 cf         1 RGC      -0.081000
      6 C4           5.0650    -6.5540    -4.2510 cf         1 RGC      -0.221000
      7 C5           5.6790    -7.2670    -5.2300 c2         1 RGC      -0.051400
      8 C38          5.3210    -7.2030    -6.7090 c3         1 RGC      -0.080900
      9 C6           6.7810    -8.2710    -4.9080 c3         1 RGC      -0.079200
     10 C7           6.2140    -9.6070    -4.3600 c3         1 RGC       0.174300
     11 O7           5.3750   -10.2550    -5.3550 os         1 RGC      -0.436000
     12 C48          5.9860   -10.7110    -6.5820 c3         1 RGC       0.142900
     13 C8           7.2870   -10.6000    -3.8240 c3         1 RGC      -0.080200
     14 C9           6.6450   -11.8380    -3.2200 c2         1 RGC      -0.044400
     15 C39          6.5470   -13.0410    -3.8250 ce         1 RGC      -0.310200
     16 C40          5.7790   -14.1860    -3.2500 c          1 RGC       0.668300
     17 O40          5.8110   -15.3110    -3.7240 o          1 RGC      -0.506000
     18 C10          6.0110   -11.6740    -1.8550 c6         1 RGC      -0.094200
     19 C11          4.6970   -12.4710    -1.8650 c6         1 RGC       0.189300
     20 O11          4.9580   -13.8530    -2.1960 os         1 RGC      -0.443100
     21 C12          3.8800   -12.3980    -0.5290 c3         1 RGC      -0.080700
     22 C41          4.5330   -13.2240     0.6170 c3         1 RGC      -0.076100
     23 C13          2.3620   -12.7550    -0.7210 c3         1 RGC       0.173300
     24 O13          1.6610   -12.6860     0.5550 os         1 RGC      -0.450000
     25 C49          1.5810   -11.4120     1.2350 c3         1 RGC       0.137900
     26 C14          1.6330   -11.8540    -1.7630 c3         1 RGC      -0.109400
     27 C15          0.1010   -12.0150    -1.8530 c3         1 RGC       0.217500
     28 O15         -0.1750   -13.3700    -2.2510 os         1 RGC      -0.454000
     29 C50         -1.5450   -13.7850    -2.1010 c3         1 RGC       0.151900
     30 C16         -0.4540   -11.0750    -2.9060 c2         1 RGC      -0.254200
     31 C17         -0.4940    -9.7370    -2.7970 c2         1 RGC      -0.178200
     32 C18         -0.9240    -8.7810    -3.8980 c3         1 RGC      -0.059500
     33 C42          0.3140    -8.2850    -4.6840 c3         1 RGC      -0.089100
     34 C19         -1.8490    -7.6170    -3.3950 c3         1 RGC       0.183300
     35 O19         -2.9690    -8.1750    -2.6690 os         1 RGC      -0.443000
     36 C51         -3.9180    -8.9440    -3.4320 c3         1 RGC       0.152900
     37 C20         -1.1500    -6.5920    -2.4550 c3         1 RGC      -0.068400
     38 C21         -1.9640    -5.3060    -2.1820 c3         1 RGC       0.205500
     39 O21         -2.9980    -5.6010    -1.2260 os         1 RGC      -0.443000
     40 C52         -3.9910    -4.5730    -1.0560 c3         1 RGC       0.147900
     41 C22         -1.0900    -4.2200    -1.5900 c2         1 RGC      -0.255200
     42 C23         -0.6400    -3.1380    -2.2450 c2         1 RGC      -0.192200
     43 C24          0.2290    -2.0490    -1.6380 c3         1 RGC      -0.039500
     44 C43         -0.6070    -0.7580    -1.4850 c3         1 RGC      -0.084100
     45 C25          1.5350    -1.8340    -2.4700 c3         1 RGC       0.184300
     46 C26          2.5160    -0.6850    -2.0240 c3         1 RGC      -0.086700
     47 C44          2.9900    -0.8880    -0.5550 c3         1 RGC      -0.077100
     48 C27          3.7000    -0.5600    -3.0670 c3         1 RGC       0.166300
     49 O27          3.1310    -0.5050    -4.4080 os         1 RGC      -0.427000
     50 C53          2.3220     0.6370    -4.7730 c3         1 RGC       0.143900
     51 C28          4.7670     0.6020    -2.9300 c3         1 RGC      -0.081700
     52 C45          5.5990     0.5770    -1.6180 c3         1 RGC      -0.087100
     53 C29          5.7510     0.6510    -4.1480 c3         1 RGC      -0.051400
     54 C30          6.6340    -0.6180    -4.3290 c3         1 RGC      -0.190400
     55 C31          7.6880    -0.5550    -5.4500 c          1 RGC       0.588100
     56 O31          7.9260     0.4890    -6.0470 o          1 RGC      -0.529100
     57 C32          8.4820    -1.8590    -5.6970 c3         1 RGC      -0.159700
     58 C46          9.8630    -1.7950    -4.9950 c3         1 RGC      -0.076100
     59 C33          8.5840    -2.2680    -7.1950 c3         1 RGC       0.174300
     60 O33          9.4670    -1.3300    -7.8490 os         1 RGC      -0.455000
     61 C54          9.9800    -1.7140    -9.1390 c3         1 RGC       0.153900
     62 C34          7.2240    -2.3220    -7.9560 c3         1 RGC      -0.087400
     63 C35          6.1890    -3.3210    -7.3720 c3         1 RGC      -0.208400
     64 O2           5.0910    -4.3290    -9.2200 o          1 RGC      -0.739000
     65 C36          5.0060    -3.4790    -8.3470 c          1 RGC       0.722000
     66 O3           4.0710    -2.7000    -8.2510 o          1 RGC      -0.739000
     67 H2           3.9680    -4.8580    -2.4360 ha         1 RGC       0.171000
     68 H3           3.4750    -5.5500    -5.3970 ha         1 RGC       0.259000
     69 H4           5.4150    -6.6900    -3.2270 ha         1 RGC       0.146000
     70 H381         4.6200    -8.0020    -6.9780 hc         1 RGC       0.065367
     71 H382         6.2070    -7.3080    -7.3460 hc         1 RGC       0.065367
     72 H383         4.8590    -6.2500    -6.9840 hc         1 RGC       0.065367
     73 H61          7.4420    -8.4510    -5.7630 hc         1 RGC       0.046200
     74 H62          7.4310    -7.8420    -4.1350 hc         1 RGC       0.046200
     75 H7           5.5800    -9.3380    -3.5050 h1         1 RGC       0.072700
     76 H481         6.7580   -11.4660    -6.3930 h1         1 RGC       0.029033
     77 H482         6.4370    -9.8830    -7.1420 h1         1 RGC       0.029033
     78 H483         5.2270   -11.1710    -7.2270 h1         1 RGC       0.029033
     79 H81          7.8920   -10.0920    -3.0640 hc         1 RGC       0.058200
     80 H82          7.9870   -10.8700    -4.6240 hc         1 RGC       0.058200
     81 H39          7.0120   -13.2330    -4.7880 ha         1 RGC       0.206000
     82 H101         6.6960   -12.0420    -1.0800 hc         1 RGC       0.068700
     83 H102         5.8080   -10.6180    -1.6290 hc         1 RGC       0.068700
     84 H11          4.1020   -12.0390    -2.6780 h1         1 RGC       0.065700
     85 H12          3.9180   -11.3490    -0.2150 hc         1 RGC       0.048700
     86 H411         4.4770   -14.2990     0.4070 hc         1 RGC       0.039033
     87 H412         5.5870   -12.9560     0.7470 hc         1 RGC       0.039033
     88 H413         4.0330   -13.0420     1.5750 hc         1 RGC       0.039033
     89 H13          2.3110   -13.7890    -1.0920 h1         1 RGC       0.105700
     90 H491         2.5740   -11.0490     1.5280 h1         1 RGC       0.026367
     91 H492         0.9860   -11.5150     2.1510 h1         1 RGC       0.026367
     92 H493         1.1000   -10.6490     0.6110 h1         1 RGC       0.026367
     93 H141         2.0240   -12.0700    -2.7630 hc         1 RGC       0.056700
     94 H142         1.8730   -10.8040    -1.5640 hc         1 RGC       0.056700
     95 H15         -0.3530   -11.7930    -0.8780 h1         1 RGC       0.046700
     96 H501        -2.2150   -13.1730    -2.7190 h1         1 RGC       0.024700
     97 H502        -1.8640   -13.7010    -1.0550 h1         1 RGC       0.024700
     98 H503        -1.6600   -14.8320    -2.4100 h1         1 RGC       0.024700
     99 H16         -0.7640   -11.5610    -3.8320 ha         1 RGC       0.169000
    100 H17         -0.1500    -9.2550    -1.8800 ha         1 RGC       0.168000
    101 H18         -1.5040    -9.3480    -4.6360 hc         1 RGC       0.045700
    102 H421         0.0230    -7.5590    -5.4540 hc         1 RGC       0.045367
    103 H422         1.0500    -7.8150    -4.0220 hc         1 RGC       0.045367
    104 H423         0.8090    -9.1270    -5.1830 hc         1 RGC       0.045367
    105 H19         -2.2090    -7.0680    -4.2760 h1         1 RGC       0.034700
    106 H511        -3.4810    -9.8900    -3.7750 h1         1 RGC       0.020700
    107 H512        -4.2660    -8.3780    -4.3060 h1         1 RGC       0.020700
    108 H513        -4.7910    -9.1860    -2.8140 h1         1 RGC       0.020700
    109 H201        -0.2080    -6.2770    -2.9150 hc         1 RGC       0.066700
    110 H202        -0.8870    -7.0660    -1.5030 hc         1 RGC       0.066700
    111 H21         -2.3980    -4.9550    -3.1290 h1         1 RGC       0.034700
    112 H521        -3.5420    -3.6470    -0.6750 h1         1 RGC       0.022700
    113 H522        -4.7550    -4.8980    -0.3400 h1         1 RGC       0.022700
    114 H523        -4.4880    -4.3520    -2.0090 h1         1 RGC       0.022700
    115 H22         -0.8370    -4.3790    -0.5410 ha         1 RGC       0.175000
    116 H23         -0.8950    -2.9830    -3.2960 ha         1 RGC       0.176000
    117 H24          0.5100    -2.3720    -0.6300 hc         1 RGC       0.057700
    118 H431        -1.5440    -0.9690    -0.9550 hc         1 RGC       0.033700
    119 H432        -0.0660     0.0010    -0.9080 hc         1 RGC       0.033700
    120 H433        -0.8570    -0.3360    -2.4670 hc         1 RGC       0.033700
    121 H25          1.2020    -1.6040    -3.4900 h1         1 RGC       0.090700
    122 H26          1.9620     0.2590    -2.0360 hc         1 RGC       0.045700
    123 H441         2.1730    -1.1940     0.1040 hc         1 RGC       0.032033
    124 H442         3.7760    -1.6510    -0.4920 hc         1 RGC       0.032033
    125 H443         3.3600     0.0450    -0.1270 hc         1 RGC       0.032033
    126 H27          4.2690    -1.4950    -2.9830 h1         1 RGC       0.081700
    127 H531         2.8870     1.5740    -4.7000 h1         1 RGC       0.025033
    128 H532         1.4280     0.7160    -4.1430 h1         1 RGC       0.025033
    129 H533         1.9840     0.5360    -5.8120 h1         1 RGC       0.025033
    130 H28          4.2250     1.5550    -2.9210 hc         1 RGC       0.038700
    131 H451         6.5470     1.1140    -1.7390 hc         1 RGC       0.030367
    132 H452         5.8340    -0.4500    -1.3120 hc         1 RGC       0.030367
    133 H453         5.0730     1.0860    -0.8050 hc         1 RGC       0.030367
    134 H291         5.1960     0.8310    -5.0760 hc         1 RGC       0.047200
    135 H292         6.4060     1.5240    -4.0310 hc         1 RGC       0.047200
    136 H301         7.1670    -0.8840    -3.4100 hc         1 RGC       0.075200
    137 H302         6.0290    -1.5170    -4.4870 hc         1 RGC       0.075200
    138 H32          7.9470    -2.6630    -5.1780 hc         1 RGC       0.064700
    139 H461        10.4740    -0.9770    -5.3960 hc         1 RGC       0.033033
    140 H462         9.7400    -1.6290    -3.9180 hc         1 RGC       0.033033
    141 H463        10.4120    -2.7340    -5.1320 hc         1 RGC       0.033033
    142 H33          9.0300    -3.2720    -7.2290 h1         1 RGC       0.023700
    143 H541         9.1900    -1.7220    -9.8990 h1         1 RGC       0.020367
    144 H542        10.4390    -2.7110    -9.0970 h1         1 RGC       0.020367
    145 H543        10.7470    -1.0010    -9.4660 h1         1 RGC       0.020367
    146 H341         7.4120    -2.6220    -8.9930 hc         1 RGC       0.057200
    147 H342         6.7810    -1.3200    -8.0010 hc         1 RGC       0.057200
    148 H351         5.8460    -2.8920    -6.4230 hc         1 RGC       0.011700
    149 H352         6.7190    -4.2740    -7.2580 hc         1 RGC       0.011700
@<TRIPOS>BOND
     1     1     2 2   
     2     2     3 1   
     3     2     4 1   
     4     3    45 1   
     5     4     5 2   
     6     4    67 1   
     7     5     6 1   
     8     5    68 1   
     9     6     7 2   
    10     6    69 1   
    11     7     8 1   
    12     7     9 1   
    13     8    70 1   
    14     8    71 1   
    15     8    72 1   
    16     9    10 1   
    17     9    73 1   
    18     9    74 1   
    19    10    11 1   
    20    10    13 1   
    21    10    75 1   
    22    11    12 1   
    23    12    76 1   
    24    12    77 1   
    25    12    78 1   
    26    13    14 1   
    27    13    79 1   
    28    13    80 1   
    29    14    15 2   
    30    14    18 1   
    31    15    16 1   
    32    15    81 1   
    33    16    17 2   
    34    16    20 1   
    35    18    19 1   
    36    18    82 1   
    37    18    83 1   
    38    19    20 1   
    39    19    21 1   
    40    19    84 1   
    41    21    22 1   
    42    21    23 1   
    43    21    85 1   
    44    22    86 1   
    45    22    87 1   
    46    22    88 1   
    47    23    24 1   
    48    23    26 1   
    49    23    89 1   
    50    24    25 1   
    51    25    90 1   
    52    25    91 1   
    53    25    92 1   
    54    26    27 1   
    55    26    93 1   
    56    26    94 1   
    57    27    28 1   
    58    27    30 1   
    59    27    95 1   
    60    28    29 1   
    61    29    96 1   
    62    29    97 1   
    63    29    98 1   
    64    30    31 2   
    65    30    99 1   
    66    31    32 1   
    67    31   100 1   
    68    32    33 1   
    69    32    34 1   
    70    32   101 1   
    71    33   102 1   
    72    33   103 1   
    73    33   104 1   
    74    34    35 1   
    75    34    37 1   
    76    34   105 1   
    77    35    36 1   
    78    36   106 1   
    79    36   107 1   
    80    36   108 1   
    81    37    38 1   
    82    37   109 1   
    83    37   110 1   
    84    38    39 1   
    85    38    41 1   
    86    38   111 1   
    87    39    40 1   
    88    40   112 1   
    89    40   113 1   
    90    40   114 1   
    91    41    42 2   
    92    41   115 1   
    93    42    43 1   
    94    42   116 1   
    95    43    44 1   
    96    43    45 1   
    97    43   117 1   
    98    44   118 1   
    99    44   119 1   
   100    44   120 1   
   101    45    46 1   
   102    45   121 1   
   103    46    47 1   
   104    46    48 1   
   105    46   122 1   
   106    47   123 1   
   107    47   124 1   
   108    47   125 1   
   109    48    49 1   
   110    48    51 1   
   111    48   126 1   
   112    49    50 1   
   113    50   127 1   
   114    50   128 1   
   115    50   129 1   
   116    51    52 1   
   117    51    53 1   
   118    51   130 1   
   119    52   131 1   
   120    52   132 1   
   121    52   133 1   
   122    53    54 1   
   123    53   134 1   
   124    53   135 1   
   125    54    55 1   
   126    54   136 1   
   127    54   137 1   
   128    55    56 2   
   129    55    57 1   
   130    57    58 1   
   131    57    59 1   
   132    57   138 1   
   133    58   139 1   
   134    58   140 1   
   135    58   141 1   
   136    59    60 1   
   137    59    62 1   
   138    59   142 1   
   139    60    61 1   
   140    61   143 1   
   141    61   144 1   
   142    61   145 1   
   143    62    63 1   
   144    62   146 1   
   145    62   147 1   
   146    63    65 1   
   147    63   148 1   
   148    63   149 1   
   149    64    65 1   
   150    65    66 1   
@<TRIPOS>SUBSTRUCTURE
     1 RGC         1 TEMP              0 ****  ****    0 ROOT
