@<TRIPOS>MOLECULE
RGC
  149   150     1     0     0
SMALL
abcg2


@<TRIPOS>ATOM
      1 O1           2.3690    -3.7950    -4.6250 o          1 RGC      -0.427000
      2 C1           2.8760    -4.0220    -3.5550 c          1 RGC       0.588300
      3 O25          2.6190    -3.3390    -2.4340 os         1 RGC      -0.474100
      4 C2           3.8730    -5.0660    -3.2830 ce         1 RGC      -0.309200
      5 C3           4.5420    -5.6910    -4.2660 cf         1 RGC      -0.081000
      6 C4           5.5410    -6.6920    -3.9750 cf         1 RGC      -0.221000
      7 C5           6.3070    -7.3640    -4.8540 c2         1 RGC      -0.051400
      8 C38          6.3140    -7.1470    -6.3310 c3         1 RGC      -0.080900
      9 C6           7.2180    -8.4440    -4.3260 c3         1 RGC      -0.079200
     10 C7           6.4380    -9.7370    -4.0440 c3         1 RGC       0.174300
     11 O7           5.7750   -10.2430    -5.1760 os         1 RGC      -0.436000
     12 C48          6.5790   -10.7780    -6.2000 c3         1 RGC       0.142900
     13 C8           7.3050   -10.7890    -3.3280 c3         1 RGC      -0.080200
     14 C9           6.4310   -11.8650    -2.7780 c2         1 RGC      -0.044400
     15 C39          6.2610   -13.0560    -3.3610 ce         1 RGC      -0.310200
     16 C40          5.3740   -14.0700    -2.7830 c          1 RGC       0.668300
     17 O40          5.3890   -15.2350    -3.1050 o          1 RGC      -0.506000
     18 C10          5.6580   -11.5670    -1.5300 c6         1 RGC      -0.094200
     19 C11          4.3240   -12.2770    -1.5930 c6         1 RGC       0.189300
     20 O11          4.5160   -13.6810    -1.8360 os         1 RGC      -0.443100
     21 C12          3.4620   -12.1190    -0.3410 c3         1 RGC      -0.080700
     22 C41          4.0310   -12.8940     0.8460 c3         1 RGC      -0.076100
     23 C13          1.9940   -12.5040    -0.6310 c3         1 RGC       0.173300
     24 O13          1.2380   -12.6620     0.5530 os         1 RGC      -0.450000
     25 C49          1.0080   -11.4980     1.3090 c3         1 RGC       0.137900
     26 C14          1.3300   -11.5350    -1.6120 c3         1 RGC      -0.109400
     27 C15         -0.1080   -11.8870    -1.9550 c3         1 RGC       0.217500
     28 O15         -0.1200   -13.2040    -2.4840 os         1 RGC      -0.454000
     29 C50         -1.3230   -13.8980    -2.2720 c3         1 RGC       0.151900
     30 C16         -0.7430   -10.9420    -2.9400 c2         1 RGC      -0.254200
     31 C17         -0.2660    -9.7740    -3.3600 c2         1 RGC      -0.178200
     32 C18         -0.9760    -8.8920    -4.3420 c3         1 RGC      -0.059500
     33 C42         -0.0120    -8.3210    -5.3810 c3         1 RGC      -0.089100
     34 C19         -1.7810    -7.7810    -3.6340 c3         1 RGC       0.183300
     35 O19         -2.7870    -8.3480    -2.8280 os         1 RGC      -0.443000
     36 C51         -3.9760    -8.6440    -3.5080 c3         1 RGC       0.152900
     37 C20         -0.9330    -6.8550    -2.7670 c3         1 RGC      -0.068400
     38 C21         -1.5630    -5.4840    -2.5500 c3         1 RGC       0.205500
     39 O21         -2.7590    -5.6450    -1.8150 os         1 RGC      -0.443000
     40 C52         -3.5850    -4.5100    -1.8200 c3         1 RGC       0.147900
     41 C22         -0.6300    -4.5370    -1.8530 c2         1 RGC      -0.255200
     42 C23         -0.2760    -3.3610    -2.3580 c2         1 RGC      -0.192200
     43 C24          0.5800    -2.3410    -1.6710 c3         1 RGC      -0.039500
     44 C43         -0.2130    -1.0420    -1.5190 c3         1 RGC      -0.084100
     45 C25          1.8690    -2.1200    -2.4700 c3         1 RGC       0.184300
     46 C26          2.7950    -1.0060    -1.9440 c3         1 RGC      -0.086700
     47 C44          3.1940    -1.2450    -0.4890 c3         1 RGC      -0.077100
     48 C27          3.9860    -0.8380    -2.9150 c3         1 RGC       0.166300
     49 O27          3.5070    -0.6490    -4.2350 os         1 RGC      -0.427000
     50 C53          2.7170     0.4900    -4.4650 c3         1 RGC       0.143900
     51 C28          5.0560     0.2200    -2.5530 c3         1 RGC      -0.081700
     52 C45          5.9960    -0.2440    -1.4330 c3         1 RGC      -0.087100
     53 C29          5.9060     0.5850    -3.7840 c3         1 RGC      -0.051400
     54 C30          6.5720    -0.6080    -4.4510 c3         1 RGC      -0.190400
     55 C31          7.6040    -0.2700    -5.4910 c          1 RGC       0.588100
     56 O31          7.9280     0.8690    -5.7410 o          1 RGC      -0.529100
     57 C32          8.2560    -1.4570    -6.1860 c3         1 RGC      -0.159700
     58 C46          9.7760    -1.3710    -6.0740 c3         1 RGC      -0.076100
     59 C33          7.8030    -1.5950    -7.6480 c3         1 RGC       0.174300
     60 O33          8.2420    -0.4550    -8.3570 os         1 RGC      -0.455000
     61 C54          8.4780    -0.6840    -9.7220 c3         1 RGC       0.153900
     62 C34          6.3010    -1.8170    -7.8300 c3         1 RGC      -0.087400
     63 C35          5.8130    -3.1590    -7.2980 c3         1 RGC      -0.208400
     64 O2           4.1410    -4.8130    -7.6310 o          1 RGC      -0.739000
     65 C36          4.4520    -3.6210    -7.8490 c          1 RGC       0.722000
     66 O3           3.7630    -2.7920    -8.4720 o          1 RGC      -0.739000
     67 H2           4.0930    -5.2860    -2.2440 ha         1 RGC       0.171000
     68 H3           4.3340    -5.4240    -5.3000 ha         1 RGC       0.259000
     69 H4           5.6640    -6.9330    -2.9210 ha         1 RGC       0.146000
     70 H381         6.0410    -8.0680    -6.8520 hc         1 RGC       0.065367
     71 H382         7.3290    -6.9030    -6.6590 hc         1 RGC       0.065367
     72 H383         5.6510    -6.3540    -6.6720 hc         1 RGC       0.065367
     73 H61          8.0470    -8.6240    -5.0150 hc         1 RGC       0.046200
     74 H62          7.6640    -8.1250    -3.3810 hc         1 RGC       0.046200
     75 H7           5.6260    -9.4580    -3.3650 h1         1 RGC       0.072700
     76 H481         6.9910   -11.7590    -5.9430 h1         1 RGC       0.029033
     77 H482         7.4130   -10.1280    -6.4810 h1         1 RGC       0.029033
     78 H483         5.9440   -10.9010    -7.0760 h1         1 RGC       0.029033
     79 H81          7.8250   -10.2900    -2.5050 hc         1 RGC       0.058200
     80 H82          8.0720   -11.1950    -3.9900 hc         1 RGC       0.058200
     81 H39          6.8100   -13.3470    -4.2470 ha         1 RGC       0.206000
     82 H101         6.2480   -11.8690    -0.6590 hc         1 RGC       0.068700
     83 H102         5.4810   -10.4950    -1.4220 hc         1 RGC       0.068700
     84 H11          3.7920   -11.8670    -2.4580 h1         1 RGC       0.065700
     85 H12          3.5040   -11.0470    -0.1090 hc         1 RGC       0.048700
     86 H411         3.8710   -13.9680     0.7430 hc         1 RGC       0.039033
     87 H412         5.1030   -12.7270     0.9530 hc         1 RGC       0.039033
     88 H413         3.5710   -12.5810     1.7810 hc         1 RGC       0.039033
     89 H13          1.9960   -13.5040    -1.0760 h1         1 RGC       0.105700
     90 H491         1.9300   -10.9940     1.6160 h1         1 RGC       0.026367
     91 H492         0.4790   -11.8020     2.2120 h1         1 RGC       0.026367
     92 H493         0.3820   -10.7650     0.7880 h1         1 RGC       0.026367
     93 H141         1.9050   -11.5060    -2.5400 hc         1 RGC       0.056700
     94 H142         1.3660   -10.5170    -1.2140 hc         1 RGC       0.056700
     95 H15         -0.7110   -11.8700    -1.0340 h1         1 RGC       0.046700
     96 H501        -2.1760   -13.4400    -2.7840 h1         1 RGC       0.024700
     97 H502        -1.5690   -13.9670    -1.2060 h1         1 RGC       0.024700
     98 H503        -1.1990   -14.9070    -2.6630 h1         1 RGC       0.024700
     99 H16         -1.7040   -11.2700    -3.3330 ha         1 RGC       0.169000
    100 H17          0.6830    -9.4020    -2.9800 ha         1 RGC       0.168000
    101 H18         -1.7060    -9.5050    -4.8820 hc         1 RGC       0.045700
    102 H421        -0.5330    -7.6650    -6.0820 hc         1 RGC       0.045367
    103 H422         0.7920    -7.7410    -4.9250 hc         1 RGC       0.045367
    104 H423         0.4520    -9.1210    -5.9580 hc         1 RGC       0.045367
    105 H19         -2.2390    -7.1710    -4.4300 h1         1 RGC       0.034700
    106 H511        -3.8430    -9.3880    -4.3020 h1         1 RGC       0.020700
    107 H512        -4.4260    -7.7500    -3.9560 h1         1 RGC       0.020700
    108 H513        -4.6810    -9.0540    -2.7840 h1         1 RGC       0.020700
    109 H201         0.0320    -6.6800    -3.2490 hc         1 RGC       0.066700
    110 H202        -0.7080    -7.3320    -1.8070 hc         1 RGC       0.066700
    111 H21         -1.7960    -5.0620    -3.5420 h1         1 RGC       0.034700
    112 H521        -3.1310    -3.6490    -1.3170 h1         1 RGC       0.022700
    113 H522        -4.5040    -4.7680    -1.2950 h1         1 RGC       0.022700
    114 H523        -3.8460    -4.1980    -2.8390 h1         1 RGC       0.022700
    115 H22         -0.2650    -4.8380    -0.8720 ha         1 RGC       0.175000
    116 H23         -0.6600    -3.0770    -3.3380 ha         1 RGC       0.176000
    117 H24          0.8280    -2.7200    -0.6750 hc         1 RGC       0.057700
    118 H431        -1.1680    -1.2380    -1.0300 hc         1 RGC       0.033700
    119 H432         0.3160    -0.3010    -0.9190 hc         1 RGC       0.033700
    120 H433        -0.4270    -0.5940    -2.4920 hc         1 RGC       0.033700
    121 H25          1.5870    -1.8950    -3.5010 h1         1 RGC       0.090700
    122 H26          2.2130    -0.0790    -1.9690 hc         1 RGC       0.045700
    123 H441         2.3340    -1.5480     0.1080 hc         1 RGC       0.032033
    124 H442         3.9500    -2.0230    -0.3840 hc         1 RGC       0.032033
    125 H443         3.5760    -0.3370    -0.0290 hc         1 RGC       0.032033
    126 H27          4.5160    -1.7970    -2.9590 h1         1 RGC       0.081700
    127 H531         3.1100     1.3940    -3.9900 h1         1 RGC       0.025033
    128 H532         1.6810     0.3640    -4.1290 h1         1 RGC       0.025033
    129 H533         2.6970     0.6580    -5.5420 h1         1 RGC       0.025033
    130 H28          4.5660     1.1420    -2.2160 hc         1 RGC       0.038700
    131 H451         6.8680     0.4110    -1.3870 hc         1 RGC       0.030367
    132 H452         6.3610    -1.2600    -1.6000 hc         1 RGC       0.030367
    133 H453         5.5370    -0.2270    -0.4500 hc         1 RGC       0.030367
    134 H291         5.3120     1.1230    -4.5240 hc         1 RGC       0.047200
    135 H292         6.6740     1.2880    -3.4530 hc         1 RGC       0.047200
    136 H301         7.0780    -1.2550    -3.7240 hc         1 RGC       0.075200
    137 H302         5.8290    -1.2560    -4.9280 hc         1 RGC       0.075200
    138 H32          7.9270    -2.3690    -5.6780 hc         1 RGC       0.064700
    139 H461        10.1640    -0.4760    -6.5580 hc         1 RGC       0.033033
    140 H462        10.0950    -1.3580    -5.0310 hc         1 RGC       0.033033
    141 H463        10.2370    -2.2400    -6.5460 hc         1 RGC       0.033033
    142 H33          8.3220    -2.4870    -8.0360 h1         1 RGC       0.023700
    143 H541         7.5810    -1.0020   -10.2650 h1         1 RGC       0.020367
    144 H542         9.2520    -1.4430    -9.8830 h1         1 RGC       0.020367
    145 H543         8.8200     0.2520   -10.1620 h1         1 RGC       0.020367
    146 H341         6.0820    -1.7720    -8.9000 hc         1 RGC       0.057200
    147 H342         5.7370    -0.9940    -7.3800 hc         1 RGC       0.057200
    148 H351         5.7310    -3.1430    -6.2050 hc         1 RGC       0.011700
    149 H352         6.5540    -3.9380    -7.5110 hc         1 RGC       0.011700
@<TRIPOS>BOND
     1     1     2 2   
     2     2     3 1   
     3     2     4 1   
     4     3    45 1   
     5     4     5 2   
     6     4    67 1   
     7     5     6 1   
     8     5    68 1   
     9     6     7 2   
    10     6    69 1   
    11     7     8 1   
    12     7     9 1   
    13     8    70 1   
    14     8    71 1   
    15     8    72 1   
    16     9    10 1   
    17     9    73 1   
    18     9    74 1   
    19    10    11 1   
    20    10    13 1   
    21    10    75 1   
    22    11    12 1   
    23    12    76 1   
    24    12    77 1   
    25    12    78 1   
    26    13    14 1   
    27    13    79 1   
    28    13    80 1   
    29    14    15 2   
    30    14    18 1   
    31    15    16 1   
    32    15    81 1   
    33    16    17 2   
    34    16    20 1   
    35    18    19 1   
    36    18    82 1   
    37    18    83 1   
    38    19    20 1   
    39    19    21 1   
    40    19    84 1   
    41    21    22 1   
    42    21    23 1   
    43    21    85 1   
    44    22    86 1   
    45    22    87 1   
    46    22    88 1   
    47    23    24 1   
    48    23    26 1   
    49    23    89 1   
    50    24    25 1   
    51    25    90 1   
    52    25    91 1   
    53    25    92 1   
    54    26    27 1   
    55    26    93 1   
    56    26    94 1   
    57    27    28 1   
    58    27    30 1   
    59    27    95 1   
    60    28    29 1   
    61    29    96 1   
    62    29    97 1   
    63    29    98 1   
    64    30    31 2   
    65    30    99 1   
    66    31    32 1   
    67    31   100 1   
    68    32    33 1   
    69    32    34 1   
    70    32   101 1   
    71    33   102 1   
    72    33   103 1   
    73    33   104 1   
    74    34    35 1   
    75    34    37 1   
    76    34   105 1   
    77    35    36 1   
    78    36   106 1   
    79    36   107 1   
    80    36   108 1   
    81    37    38 1   
    82    37   109 1   
    83    37   110 1   
    84    38    39 1   
    85    38    41 1   
    86    38   111 1   
    87    39    40 1   
    88    40   112 1   
    89    40   113 1   
    90    40   114 1   
    91    41    42 2   
    92    41   115 1   
    93    42    43 1   
    94    42   116 1   
    95    43    44 1   
    96    43    45 1   
    97    43   117 1   
    98    44   118 1   
    99    44   119 1   
   100    44   120 1   
   101    45    46 1   
   102    45   121 1   
   103    46    47 1   
   104    46    48 1   
   105    46   122 1   
   106    47   123 1   
   107    47   124 1   
   108    47   125 1   
   109    48    49 1   
   110    48    51 1   
   111    48   126 1   
   112    49    50 1   
   113    50   127 1   
   114    50   128 1   
   115    50   129 1   
   116    51    52 1   
   117    51    53 1   
   118    51   130 1   
   119    52   131 1   
   120    52   132 1   
   121    52   133 1   
   122    53    54 1   
   123    53   134 1   
   124    53   135 1   
   125    54    55 1   
   126    54   136 1   
   127    54   137 1   
   128    55    56 2   
   129    55    57 1   
   130    57    58 1   
   131    57    59 1   
   132    57   138 1   
   133    58   139 1   
   134    58   140 1   
   135    58   141 1   
   136    59    60 1   
   137    59    62 1   
   138    59   142 1   
   139    60    61 1   
   140    61   143 1   
   141    61   144 1   
   142    61   145 1   
   143    62    63 1   
   144    62   146 1   
   145    62   147 1   
   146    63    65 1   
   147    63   148 1   
   148    63   149 1   
   149    64    65 1   
   150    65    66 1   
@<TRIPOS>SUBSTRUCTURE
     1 RGC         1 TEMP              0 ****  ****    0 ROOT
