@<TRIPOS>MOLECULE
RGD
   42    44     1     0     0
SMALL
abcg2


@<TRIPOS>ATOM
      1 C10         29.5120    44.9030   -12.6610 c5         1 RGD       0.161300
      2 C17         26.0600    43.7920    -8.8550 cy         1 RGD      -0.074900
      3 C02         29.3640    48.2390   -10.1740 c3         1 RGD       0.164600
      4 C03         28.7700    48.0130   -11.5510 c3         1 RGD      -0.072400
      5 C04         28.1410    46.6390   -11.7750 c5         1 RGD       0.163000
      6 C05         26.8750    46.3740   -10.9670 c5         1 RGD       0.112000
      7 C07         26.5290    45.4240   -13.1670 c5         1 RGD       0.108000
      8 C08         27.7370    46.3760   -13.2410 c5         1 RGD      -0.106700
      9 C09         28.9880    45.7320   -13.8310 c5         1 RGD      -0.100400
     10 C11         31.0100    44.7200   -12.6830 c3         1 RGD       0.157600
     11 C14         25.2890    44.4590   -11.2830 c          1 RGD       0.618100
     12 C16         25.0190    44.4770    -9.7960 cy         1 RGD      -0.166700
     13 C18         24.8760    43.2350    -8.0300 cy         1 RGD      -0.094400
     14 C19         23.9470    43.5170    -9.2360 cy         1 RGD      -0.074900
     15 N06         26.1740    45.3580   -11.7480 n          1 RGD      -0.413800
     16 O01         28.3100    48.3380    -9.2070 oh         1 RGD      -0.677000
     17 O12         31.3910    43.8280   -11.6330 oh         1 RGD      -0.712000
     18 O13         29.1070    45.6070   -11.4730 os         1 RGD      -0.454000
     19 O15         24.7420    43.6440   -12.0390 o          1 RGD      -0.621100
     20 H1          29.0390    43.9140   -12.6460 h1         1 RGD       0.071700
     21 H3          26.7750    44.4400    -8.3500 hc         1 RGD       0.060450
     22 H4          30.0360    47.4150    -9.9200 h1         1 RGD       0.032200
     23 H5          29.9490    49.1650   -10.1840 h1         1 RGD       0.032200
     24 H6          29.5730    48.1390   -12.2810 hc         1 RGD       0.053700
     25 H7          28.0240    48.7850   -11.7570 hc         1 RGD       0.053700
     26 H8          26.2760    47.2850   -10.8870 h1         1 RGD       0.068200
     27 H9          27.1100    46.0260    -9.9680 h1         1 RGD       0.068200
     28 H10         25.6880    45.7940   -13.7570 h1         1 RGD       0.058200
     29 H11         26.7700    44.4240   -13.5290 h1         1 RGD       0.058200
     30 H12         27.4700    47.3010   -13.7480 hc         1 RGD       0.072700
     31 H13         28.7820    45.1230   -14.7100 hc         1 RGD       0.058200
     32 H14         29.7150    46.4990   -14.1080 hc         1 RGD       0.058200
     33 H15         31.2970    44.3110   -13.6580 h1         1 RGD       0.025700
     34 H16         31.4920    45.6960   -12.5590 h1         1 RGD       0.025700
     35 H17         24.8370    45.5010    -9.4660 hc         1 RGD       0.066700
     36 H18         24.6440    43.8770    -7.1790 hc         1 RGD       0.048700
     37 H19         24.9490    42.2040    -7.6850 hc         1 RGD       0.048700
     38 H20         22.9620    43.9380    -9.0350 hc         1 RGD       0.060450
     39 H21         23.8410    42.6460    -9.8800 hc         1 RGD       0.060450
     40 H22         28.7090    48.3840    -8.3300 ho         1 RGD       0.444000
     41 H23         32.3500    43.7350   -11.6490 ho         1 RGD       0.500000
     42 H2          26.6010    43.0020    -9.3780 hc         1 RGD       0.060450
@<TRIPOS>BOND
     1     1     9 1   
     2     1    10 1   
     3     1    18 1   
     4     1    20 1   
     5     2    12 1   
     6     2    13 1   
     7     2    21 1   
     8     2    42 1   
     9     3     4 1   
    10     3    16 1   
    11     3    22 1   
    12     3    23 1   
    13     4     5 1   
    14     4    24 1   
    15     4    25 1   
    16     5     6 1   
    17     5     8 1   
    18     5    18 1   
    19     6    15 1   
    20     6    26 1   
    21     6    27 1   
    22     7     8 1   
    23     7    15 1   
    24     7    28 1   
    25     7    29 1   
    26     8     9 1   
    27     8    30 1   
    28     9    31 1   
    29     9    32 1   
    30    10    17 1   
    31    10    33 1   
    32    10    34 1   
    33    11    12 1   
    34    11    15 1   
    35    11    19 2   
    36    12    14 1   
    37    12    35 1   
    38    13    14 1   
    39    13    36 1   
    40    13    37 1   
    41    14    38 1   
    42    14    39 1   
    43    16    40 1   
    44    17    41 1   
@<TRIPOS>SUBSTRUCTURE
     1 RGD         1 TEMP              0 ****  ****    0 ROOT
