@<TRIPOS>MOLECULE
RGD
   42    44     1     0     0
SMALL
No Charge or Current Charge


@<TRIPOS>ATOM
      1 C10         29.7720    44.9670   -12.8810 c5         1 RGD       0.161300
      2 C17         25.6170    43.6980    -8.8870 cy         1 RGD      -0.074900
      3 C02         29.6180    47.9490   -10.1730 c3         1 RGD       0.164600
      4 C03         28.9380    47.7440   -11.5460 c3         1 RGD      -0.072400
      5 C04         28.2250    46.3740   -11.7460 c5         1 RGD       0.163000
      6 C05         26.9970    46.1050   -10.8200 c5         1 RGD       0.112000
      7 C07         26.6920    44.9070   -12.9610 c5         1 RGD       0.108000
      8 C08         27.6330    46.1360   -13.1510 c5         1 RGD      -0.106700
      9 C09         28.8950    45.7000   -13.9540 c5         1 RGD      -0.100400
     10 C11         31.2800    45.3630   -12.9050 c3         1 RGD       0.157600
     11 C14         25.0670    44.4240   -11.0690 c          1 RGD       0.618100
     12 C16         24.7400    44.8260    -9.5550 cy         1 RGD      -0.166700
     13 C18         24.3510    43.4750    -7.9850 cy         1 RGD      -0.094400
     14 C19         23.5090    43.8820    -9.2450 cy         1 RGD      -0.074900
     15 N06         26.1790    45.1280   -11.5900 n          1 RGD      -0.413800
     16 O01         28.6370    48.1410    -9.1450 oh         1 RGD      -0.677000
     17 O12         32.0740    44.4780   -12.0920 oh         1 RGD      -0.712000
     18 O13         29.1600    45.2770   -11.5950 os         1 RGD      -0.454000
     19 O15         24.5110    43.6500   -11.8440 o          1 RGD      -0.621100
     20 H1          29.7060    43.8800   -13.0280 h1         1 RGD       0.071700
     21 H3          26.5150    44.0370    -8.3590 hc         1 RGD       0.060450
     22 H4          30.2580    47.0860    -9.9460 h1         1 RGD       0.032200
     23 H5          30.2670    48.8330   -10.2350 h1         1 RGD       0.032200
     24 H6          29.7010    47.8860   -12.3190 hc         1 RGD       0.053700
     25 H7          28.2180    48.5570   -11.7030 hc         1 RGD       0.053700
     26 H8          26.4270    47.0270   -10.6450 h1         1 RGD       0.068200
     27 H9          27.3200    45.7120    -9.8480 h1         1 RGD       0.068200
     28 H10         25.8890    44.8970   -13.7100 h1         1 RGD       0.058200
     29 H11         27.2220    43.9470   -13.0150 h1         1 RGD       0.058200
     30 H12         27.1130    47.0100   -13.5610 hc         1 RGD       0.072700
     31 H13         28.6540    45.0530   -14.8060 hc         1 RGD       0.058200
     32 H14         29.4160    46.5730   -14.3640 hc         1 RGD       0.058200
     33 H15         31.6300    45.3200   -13.9450 h1         1 RGD       0.025700
     34 H16         31.3920    46.4000   -12.5640 h1         1 RGD       0.025700
     35 H17         24.7700    45.8680    -9.2190 hc         1 RGD       0.066700
     36 H18         24.2680    44.1660    -7.1360 hc         1 RGD       0.048700
     37 H19         24.2000    42.4550    -7.6170 hc         1 RGD       0.048700
     38 H20         22.5630    44.3940    -9.0330 hc         1 RGD       0.060450
     39 H21         23.2920    43.0270    -9.8950 hc         1 RGD       0.060450
     40 H22         29.1280    48.2970    -8.3070 ho         1 RGD       0.444000
     41 H23         33.0020    44.8090   -12.1280 ho         1 RGD       0.500000
     42 H2          25.8830    42.8210    -9.4930 hc         1 RGD       0.060450
@<TRIPOS>BOND
     1     1     9 1   
     2     1    10 1   
     3     1    18 1   
     4     1    20 1   
     5     2    12 1   
     6     2    13 1   
     7     2    21 1   
     8     2    42 1   
     9     3     4 1   
    10     3    16 1   
    11     3    22 1   
    12     3    23 1   
    13     4     5 1   
    14     4    24 1   
    15     4    25 1   
    16     5     6 1   
    17     5     8 1   
    18     5    18 1   
    19     6    15 1   
    20     6    26 1   
    21     6    27 1   
    22     7     8 1   
    23     7    15 1   
    24     7    28 1   
    25     7    29 1   
    26     8     9 1   
    27     8    30 1   
    28     9    31 1   
    29     9    32 1   
    30    10    17 1   
    31    10    33 1   
    32    10    34 1   
    33    11    12 1   
    34    11    15 1   
    35    11    19 2   
    36    12    14 1   
    37    12    35 1   
    38    13    14 1   
    39    13    36 1   
    40    13    37 1   
    41    14    38 1   
    42    14    39 1   
    43    16    40 1   
    44    17    41 1   
@<TRIPOS>SUBSTRUCTURE
     1 RGD         1 TEMP              0 ****  ****    0 ROOT
