@<TRIPOS>MOLECULE
RGE
   31    30     1     0     0
SMALL
abcg2


@<TRIPOS>ATOM
      1 OA2          5.4130     1.0160    -1.3590 o          1 RGE      -0.730500
      2 C            5.2500     0.2480    -0.3900 c          1 RGE       0.724000
      3 OA1          5.9770     0.1640     0.6200 o          1 RGE      -0.730500
      4 CA           3.9890    -0.6430    -0.4310 c3         1 RGE       0.020500
      5 N            4.1680    -1.8210     0.4010 n8         1 RGE      -0.990200
      6 CB           2.7730     0.2290    -0.0720 c3         1 RGE      -0.099400
      7 CG           1.4400    -0.4990    -0.1890 c3         1 RGE      -0.095400
      8 CD           0.2630     0.4040     0.1440 c3         1 RGE       0.222800
      9 NE          -0.9840    -0.3110     0.0120 nu         1 RGE      -0.913400
     10 C1          -2.1430     0.1360     0.5420 c2         1 RGE       0.641200
     11 NH          -2.1870     1.1830     1.2750 n2         1 RGE      -0.845100
     12 C2          -3.3520    -0.7000     0.1950 c3         1 RGE      -0.135400
     13 S3          -4.4470     0.2530    -0.9130 s4         1 RGE       0.190400
     14 O4          -5.0730     1.3430    -0.0770 o          1 RGE      -0.502000
     15 C5          -5.7010    -1.0280    -1.1050 c3         1 RGE      -0.073800
     16 HA           3.8500    -0.9780    -1.4670 h1         1 RGE       0.040700
     17 HN1          4.4900    -1.5240     1.3130 hn         1 RGE       0.375500
     18 HN2          3.2850    -2.2960     0.5410 hn         1 RGE       0.375500
     19 HB1C         2.8940     0.6120     0.9480 hc         1 RGE       0.047700
     20 HB2C         2.7630     1.1000    -0.7340 hc         1 RGE       0.047700
     21 HG1C         1.3300    -0.8890    -1.2060 hc         1 RGE       0.028700
     22 HG2C         1.4140    -1.3610     0.4850 hc         1 RGE       0.028700
     23 HD1C         0.3480     0.7650     1.1710 h1         1 RGE       0.051200
     24 HD2C         0.2740     1.2920    -0.5010 h1         1 RGE       0.051200
     25 HH1N        -3.1310     1.3390     1.6060 hn         1 RGE       0.392400
     26 H2A         -3.0950    -1.6270    -0.3200 h1         1 RGE       0.086200
     27 H2B         -3.9270    -0.9420     1.0910 h1         1 RGE       0.086200
     28 H53C        -5.2850    -1.8720    -1.6530 h1         1 RGE       0.076367
     29 H51C        -6.0610    -1.3440    -0.1270 h1         1 RGE       0.076367
     30 H52C        -6.5180    -0.5950    -1.6800 h1         1 RGE       0.076367
     31 H1          -1.0270    -1.0320    -0.6890 hn         1 RGE       0.475000
@<TRIPOS>BOND
     1     1     2 1   
     2     2     3 1   
     3     2     4 1   
     4     4     5 1   
     5     4     6 1   
     6     4    16 1   
     7     5    17 1   
     8     5    18 1   
     9     6     7 1   
    10     6    19 1   
    11     6    20 1   
    12     7     8 1   
    13     7    21 1   
    14     7    22 1   
    15     8     9 1   
    16     8    23 1   
    17     8    24 1   
    18     9    10 1   
    19     9    31 1   
    20    10    11 2   
    21    10    12 1   
    22    11    25 1   
    23    12    13 1   
    24    12    26 1   
    25    12    27 1   
    26    13    14 2   
    27    13    15 1   
    28    15    28 1   
    29    15    29 1   
    30    15    30 1   
@<TRIPOS>SUBSTRUCTURE
     1 RGE         1 TEMP              0 ****  ****    0 ROOT
