@<TRIPOS>MOLECULE
RGE
   31    30     1     0     0
SMALL
No Charge or Current Charge


@<TRIPOS>ATOM
      1 OA2          5.9500     0.5280    -1.4930 o          1 RGE      -0.730500
      2 C            5.4160     0.2950    -0.4150 c          1 RGE       0.724000
      3 OA1          5.8830     0.6700     0.6550 o          1 RGE      -0.730500
      4 CA           4.1070    -0.6040    -0.4010 c3         1 RGE       0.020500
      5 N            4.1980    -1.9100     0.3460 n8         1 RGE      -0.990200
      6 CB           2.8820     0.2110     0.0960 c3         1 RGE      -0.099400
      7 CG           1.5100    -0.4610    -0.1640 c3         1 RGE      -0.095400
      8 CD           0.3210     0.4160     0.2810 c3         1 RGE       0.222800
      9 NE          -0.9530    -0.2650     0.0010 nu         1 RGE      -0.913400
     10 C1          -2.2020     0.2380     0.2590 c2         1 RGE       0.641200
     11 NH          -2.3080     1.3520     0.8600 n2         1 RGE      -0.845100
     12 C2          -3.3620    -0.6470    -0.1180 c3         1 RGE      -0.135400
     13 S3          -4.7910     0.3380    -0.7490 s4         1 RGE       0.190400
     14 O4          -5.2860     1.1780     0.4070 o          1 RGE      -0.502000
     15 C5          -5.9610    -1.0760    -0.9230 c3         1 RGE      -0.073800
     16 HA           3.9090    -0.8600    -1.4510 h1         1 RGE       0.040700
     17 HN1          4.4570    -1.7130     1.3200 hn         1 RGE       0.375500
     18 HN2          3.2600    -2.3180     0.4170 hn         1 RGE       0.375500
     19 HB1C         2.9910     0.4210     1.1680 hc         1 RGE       0.047700
     20 HB2C         2.8900     1.1840    -0.4110 hc         1 RGE       0.047700
     21 HG1C         1.4160    -0.6770    -1.2360 hc         1 RGE       0.028700
     22 HG2C         1.4610    -1.4190     0.3670 hc         1 RGE       0.028700
     23 HD1C         0.4100     0.6250     1.3570 h1         1 RGE       0.051200
     24 HD2C         0.3600     1.3760    -0.2540 h1         1 RGE       0.051200
     25 HH1N        -3.3190     1.5340     0.9630 hn         1 RGE       0.392400
     26 H2A         -3.0730    -1.3480    -0.9090 h1         1 RGE       0.086200
     27 H2B         -3.6950    -1.2150     0.7590 h1         1 RGE       0.086200
     28 H53C        -5.6130    -1.7280    -1.7330 h1         1 RGE       0.076367
     29 H51C        -5.9980    -1.6330     0.0210 h1         1 RGE       0.076367
     30 H52C        -6.9560    -0.6820    -1.1630 h1         1 RGE       0.076367
     31 H1          -0.9160    -1.1880    -0.4250 hn         1 RGE       0.475000
@<TRIPOS>BOND
     1     1     2 1   
     2     2     3 1   
     3     2     4 1   
     4     4     5 1   
     5     4     6 1   
     6     4    16 1   
     7     5    17 1   
     8     5    18 1   
     9     6     7 1   
    10     6    19 1   
    11     6    20 1   
    12     7     8 1   
    13     7    21 1   
    14     7    22 1   
    15     8     9 1   
    16     8    23 1   
    17     8    24 1   
    18     9    10 1   
    19     9    31 1   
    20    10    11 2   
    21    10    12 1   
    22    11    25 1   
    23    12    13 1   
    24    12    26 1   
    25    12    27 1   
    26    13    14 2   
    27    13    15 1   
    28    15    28 1   
    29    15    29 1   
    30    15    30 1   
@<TRIPOS>SUBSTRUCTURE
     1 RGE         1 TEMP              0 ****  ****    0 ROOT
