@<TRIPOS>MOLECULE
RGF
   41    45     1     0     0
SMALL
No Charge or Current Charge


@<TRIPOS>ATOM
      1 C18        -44.3640   -30.4260     5.6850 ca         1 RGF       0.183900
      2 C16        -46.5720   -30.0470     6.0570 ca         1 RGF       0.192500
      3 C13        -48.5810   -27.8170     3.8710 ca         1 RGF      -0.038000
      4 C12        -49.9420   -27.4760     4.0510 ca         1 RGF      -0.172000
      5 C11        -50.6870   -28.0280     5.1190 ca         1 RGF       0.170000
      6 C10        -50.0890   -28.9150     6.0350 ca         1 RGF      -0.187000
      7 C20        -44.2470   -27.7270     2.3890 c5         1 RGF       0.226800
      8 C02        -45.7280   -29.0740    -0.8120 c          1 RGF       0.720000
      9 C03        -45.0700   -28.9180     0.5830 c5         1 RGF      -0.191700
     10 C04        -46.1520   -29.0320     1.6910 c5         1 RGF       0.222800
     11 C06        -45.4710   -29.1380     4.1150 ca         1 RGF       0.439900
     12 C07        -46.6410   -29.2720     4.8950 cp         1 RGF      -0.241000
     13 C08        -47.9970   -28.7370     4.7660 cp         1 RGF      -0.041000
     14 C09        -48.7470   -29.2380     5.8240 ca         1 RGF      -0.010200
     15 C21        -44.4400   -27.5090     0.8630 cy         1 RGF      -0.063000
     16 C22        -43.2320   -26.9960    -0.0030 cy         1 RGF      -0.077900
     17 C23        -43.6930   -25.5530     0.3790 cy         1 RGF      -0.099400
     18 C24        -45.1300   -26.1640     0.4060 cy         1 RGF      -0.077900
     19 F14        -51.9820   -27.6800     5.2770 f          1 RGF      -0.197000
     20 N05        -45.4180   -28.4960     2.8630 nh         1 RGF      -0.748300
     21 N15        -47.8710   -30.0260     6.5780 na         1 RGF      -0.338300
     22 N17        -45.4420   -30.6340     6.4750 nb         1 RGF      -0.281000
     23 N19        -44.3230   -29.7190     4.5320 nb         1 RGF      -0.310000
     24 O01        -46.7230   -28.4280    -1.1040 o          1 RGF      -0.726500
     25 O25        -45.2490   -29.8910    -1.5840 o          1 RGF      -0.726500
     26 H181       -43.4320   -30.8880     6.0050 h5         1 RGF       0.032100
     27 H131       -47.9990   -27.3590     3.0780 ha         1 RGF       0.148000
     28 H121       -50.4170   -26.7730     3.3710 ha         1 RGF       0.134000
     29 H101       -50.6480   -29.3200     6.8740 ha         1 RGF       0.124000
     30 H202       -43.3190   -28.2830     2.5840 h1         1 RGF       0.048200
     31 H201       -44.1600   -26.7800     2.9400 h1         1 RGF       0.048200
     32 H031       -44.3000   -29.6930     0.6840 hc         1 RGF       0.049700
     33 H041       -47.0390   -28.4280     1.4590 h1         1 RGF       0.063200
     34 H042       -46.4750   -30.0740     1.8350 h1         1 RGF       0.063200
     35 H222       -43.3060   -27.2280    -1.0730 hc         1 RGF       0.060950
     36 H221       -42.2350   -27.2870     0.3440 hc         1 RGF       0.060950
     37 H232       -43.3250   -25.1920     1.3460 hc         1 RGF       0.031200
     38 H231       -43.5160   -24.7790    -0.3750 hc         1 RGF       0.031200
     39 H241       -45.8280   -25.7170     1.1220 hc         1 RGF       0.060950
     40 H242       -45.6130   -26.1820    -0.5770 hc         1 RGF       0.060950
     41 H151       -48.1380   -30.5220     7.4200 hn         1 RGF       0.356000
@<TRIPOS>BOND
     1     1    22 ar  
     2     1    23 ar  
     3     1    26 1   
     4     2    12 ar  
     5     2    21 1   
     6     2    22 ar  
     7     3     4 ar  
     8     3    13 ar  
     9     3    27 1   
    10     4     5 ar  
    11     4    28 1   
    12     5     6 ar  
    13     5    19 1   
    14     6    14 ar  
    15     6    29 1   
    16     7    15 1   
    17     7    20 1   
    18     7    30 1   
    19     7    31 1   
    20     8     9 1   
    21     8    24 1   
    22     8    25 1   
    23     9    10 1   
    24     9    15 1   
    25     9    32 1   
    26    10    20 1   
    27    10    33 1   
    28    10    34 1   
    29    11    12 ar  
    30    11    20 1   
    31    11    23 ar  
    32    12    13 1   
    33    13    14 ar  
    34    14    21 1   
    35    15    16 1   
    36    15    18 1   
    37    16    17 1   
    38    16    35 1   
    39    16    36 1   
    40    17    18 1   
    41    17    37 1   
    42    17    38 1   
    43    18    39 1   
    44    18    40 1   
    45    21    41 1   
@<TRIPOS>SUBSTRUCTURE
     1 RGF         1 TEMP              0 ****  ****    0 ROOT
