@<TRIPOS>MOLECULE
RGF
   41    45     1     0     0
SMALL
abcg2


@<TRIPOS>ATOM
      1 C18        -44.2970   -29.4530     6.0110 ca         1 RGF       0.183900
      2 C16        -46.5070   -29.6280     6.0850 ca         1 RGF       0.192500
      3 C13        -48.9700   -28.2660     3.7080 ca         1 RGF      -0.038000
      4 C12        -50.3460   -28.2910     3.8950 ca         1 RGF      -0.172000
      5 C11        -50.8730   -28.9060     5.0250 ca         1 RGF       0.170000
      6 C10        -50.0950   -29.4910     6.0020 ca         1 RGF      -0.187000
      7 C20        -44.0270   -28.0350     2.2750 c5         1 RGF       0.226800
      8 C02        -46.3330   -28.1510    -0.7470 c          1 RGF       0.720000
      9 C03        -45.5690   -28.5280     0.5360 c5         1 RGF      -0.191700
     10 C04        -46.3700   -28.4120     1.8290 c5         1 RGF       0.222800
     11 C06        -45.4620   -28.7240     4.1400 ca         1 RGF       0.439900
     12 C07        -46.6780   -29.0170     4.8200 cp         1 RGF      -0.241000
     13 C08        -48.1190   -28.8660     4.6420 cp         1 RGF      -0.041000
     14 C09        -48.7200   -29.4510     5.7940 ca         1 RGF      -0.010200
     15 C21        -44.3460   -27.6450     0.8350 cy         1 RGF      -0.063000
     16 C22        -43.1170   -27.6330    -0.1010 cy         1 RGF      -0.077900
     17 C23        -43.0180   -26.0980     0.0860 cy         1 RGF      -0.099400
     18 C24        -44.4670   -26.1050     0.6340 cy         1 RGF      -0.077900
     19 F14        -52.2240   -28.9170     5.1840 f          1 RGF      -0.197000
     20 N05        -45.3460   -28.2810     2.8740 nh         1 RGF      -0.748300
     21 N15        -47.7270   -29.9110     6.6290 na         1 RGF      -0.338300
     22 N17        -45.3490   -29.8750     6.7070 nb         1 RGF      -0.281000
     23 N19        -44.2890   -28.9100     4.8020 nb         1 RGF      -0.310000
     24 O01        -47.3720   -27.4520    -0.6350 o          1 RGF      -0.726500
     25 O25        -45.8330   -28.5650    -1.8250 o          1 RGF      -0.726500
     26 H181       -43.3260   -29.5760     6.4830 h5         1 RGF       0.032100
     27 H131       -48.5850   -27.7670     2.8350 ha         1 RGF       0.148000
     28 H121       -51.0130   -27.8310     3.1790 ha         1 RGF       0.134000
     29 H101       -50.5330   -29.9430     6.8810 ha         1 RGF       0.124000
     30 H202       -43.4230   -28.9470     2.3020 h1         1 RGF       0.048200
     31 H201       -43.4880   -27.2620     2.8230 h1         1 RGF       0.048200
     32 H031       -45.2090   -29.5540     0.4170 hc         1 RGF       0.049700
     33 H041       -46.9940   -27.5220     1.7770 h1         1 RGF       0.063200
     34 H042       -46.9990   -29.2800     2.0170 h1         1 RGF       0.063200
     35 H222       -43.4000   -27.9070    -1.1160 hc         1 RGF       0.060950
     36 H221       -42.2630   -28.2360     0.2130 hc         1 RGF       0.060950
     37 H232       -42.2900   -25.8240     0.8500 hc         1 RGF       0.031200
     38 H231       -42.8320   -25.5010    -0.8060 hc         1 RGF       0.031200
     39 H241       -44.6740   -25.5100     1.5240 hc         1 RGF       0.060950
     40 H242       -45.1960   -25.8550    -0.1360 hc         1 RGF       0.060950
     41 H151       -47.8650   -30.3180     7.5410 hn         1 RGF       0.356000
@<TRIPOS>BOND
     1     1    22 ar  
     2     1    23 ar  
     3     1    26 1   
     4     2    12 ar  
     5     2    21 1   
     6     2    22 ar  
     7     3     4 ar  
     8     3    13 ar  
     9     3    27 1   
    10     4     5 ar  
    11     4    28 1   
    12     5     6 ar  
    13     5    19 1   
    14     6    14 ar  
    15     6    29 1   
    16     7    15 1   
    17     7    20 1   
    18     7    30 1   
    19     7    31 1   
    20     8     9 1   
    21     8    24 1   
    22     8    25 1   
    23     9    10 1   
    24     9    15 1   
    25     9    32 1   
    26    10    20 1   
    27    10    33 1   
    28    10    34 1   
    29    11    12 ar  
    30    11    20 1   
    31    11    23 ar  
    32    12    13 1   
    33    13    14 ar  
    34    14    21 1   
    35    15    16 1   
    36    15    18 1   
    37    16    17 1   
    38    16    35 1   
    39    16    36 1   
    40    17    18 1   
    41    17    37 1   
    42    17    38 1   
    43    18    39 1   
    44    18    40 1   
    45    21    41 1   
@<TRIPOS>SUBSTRUCTURE
     1 RGF         1 TEMP              0 ****  ****    0 ROOT
