@<TRIPOS>MOLECULE
RGG
   35    35     1     0     0
SMALL
abcg2


@<TRIPOS>ATOM
      1 O3          -1.2190    -5.2830    -2.6800 oh         1 RGG      -0.662000
      2 C3          -0.2400    -4.2710    -2.6590 c3         1 RGG       0.124600
      3 C2           0.5590    -4.3780    -1.3630 c3         1 RGG       0.169300
      4 O2           1.6060    -3.4330    -1.3630 oh         1 RGG      -0.703000
      5 C1          -0.3190    -4.0900    -0.1650 c3         1 RGG       0.167600
      6 O1           0.4150    -4.3350     1.0220 os         1 RGG      -0.442000
      7 C9          -0.3010    -4.1510     2.1830 c6         1 RGG       0.354300
      8 C8           0.4540    -4.8120     3.3380 c6         1 RGG       0.118300
      9 O8           0.5040    -6.2050     3.1770 oh         1 RGG      -0.699000
     10 C7          -0.2690    -4.5080     4.6530 c6         1 RGG       0.144300
     11 O7           0.4220    -5.0090     5.7670 oh         1 RGG      -0.627000
     12 C4          -0.5530    -3.0070     4.7960 c6         1 RGG       0.105300
     13 O4           0.6230    -2.2880     5.1060 oh         1 RGG      -0.718000
     14 C5          -1.2450    -2.4940     3.5380 c6         1 RGG       0.103300
     15 O5          -0.4380    -2.7710     2.4110 os         1 RGG      -0.469000
     16 C6          -1.5280    -1.0020     3.5790 c3         1 RGG       0.168600
     17 O6          -2.2680    -0.5530     2.4710 oh         1 RGG      -0.697000
     18 HO3         -1.7660    -5.1600    -3.4610 ho         1 RGG       0.450000
     19 H3           0.4570    -4.3670    -3.5030 h1         1 RGG       0.028200
     20 H3'A        -0.6840    -3.2680    -2.7220 h1         1 RGG       0.028200
     21 H2           0.9490    -5.4020    -1.2790 h1         1 RGG       0.052700
     22 HO2          2.2490    -3.6870    -2.0330 ho         1 RGG       0.501000
     23 H1          -0.6600    -3.0490    -0.2100 h1         1 RGG       0.051200
     24 H1'A        -1.2070    -4.7300    -0.1970 h1         1 RGG       0.051200
     25 H11         -1.3070    -4.6090     2.1030 h2         1 RGG       0.030700
     26 H9           1.4670    -4.3790     3.3720 h1         1 RGG       0.050700
     27 H10          1.0460    -6.4010     2.4050 ho         1 RGG       0.518000
     28 H8          -1.2340    -5.0280     4.6280 h1         1 RGG       0.084700
     29 H7           1.1790    -4.4310     5.9240 ho         1 RGG       0.451000
     30 H4          -1.2260    -2.8660     5.6480 h1         1 RGG       0.090700
     31 HO4          1.1590    -2.1960     4.3100 ho         1 RGG       0.519000
     32 H5          -2.2080    -3.0280     3.4530 h1         1 RGG       0.038700
     33 H61         -2.0320    -0.7780     4.5280 h1         1 RGG       0.059700
     34 H62         -0.5910    -0.4420     3.5750 h1         1 RGG       0.059700
     35 HO6         -3.1470    -0.9420     2.5140 ho         1 RGG       0.495000
@<TRIPOS>BOND
     1     1     2 1   
     2     1    18 1   
     3     2     3 1   
     4     2    19 1   
     5     2    20 1   
     6     3     4 1   
     7     3     5 1   
     8     3    21 1   
     9     4    22 1   
    10     5     6 1   
    11     5    23 1   
    12     5    24 1   
    13     6     7 1   
    14     7     8 1   
    15     7    15 1   
    16     7    25 1   
    17     8     9 1   
    18     8    10 1   
    19     8    26 1   
    20     9    27 1   
    21    10    11 1   
    22    10    12 1   
    23    10    28 1   
    24    11    29 1   
    25    12    13 1   
    26    12    14 1   
    27    12    30 1   
    28    13    31 1   
    29    14    15 1   
    30    14    16 1   
    31    14    32 1   
    32    16    17 1   
    33    16    33 1   
    34    16    34 1   
    35    17    35 1   
@<TRIPOS>SUBSTRUCTURE
     1 RGG         1 TEMP              0 ****  ****    0 ROOT
