@<TRIPOS>MOLECULE
RGG
   35    35     1     0     0
SMALL
No Charge or Current Charge


@<TRIPOS>ATOM
      1 O3          -1.5040    -4.9540    -2.8400 oh         1 RGG      -0.662000
      2 C3          -0.3090    -4.1590    -2.7520 c3         1 RGG       0.124600
      3 C2           0.4560    -4.4280    -1.4230 c3         1 RGG       0.169300
      4 O2           1.6880    -3.6710    -1.4200 oh         1 RGG      -0.703000
      5 C1          -0.3990    -4.0790    -0.1700 c3         1 RGG       0.167600
      6 O1           0.3220    -4.4610     1.0210 os         1 RGG      -0.442000
      7 C9          -0.3580    -4.2480     2.2690 c6         1 RGG       0.354300
      8 C8           0.4820    -4.8440     3.4500 c6         1 RGG       0.118300
      9 O8           0.6950    -6.2680     3.2800 oh         1 RGG      -0.699000
     10 C7          -0.2150    -4.5110     4.8170 c6         1 RGG       0.144300
     11 O7           0.6130    -4.8830     5.9330 oh         1 RGG      -0.627000
     12 C4          -0.5220    -2.9820     4.9200 c6         1 RGG       0.105300
     13 O4           0.7220    -2.2510     5.0140 oh         1 RGG      -0.718000
     14 C5          -1.3310    -2.5440     3.6610 c6         1 RGG       0.103300
     15 O5          -0.5610    -2.8330     2.4690 os         1 RGG      -0.469000
     16 C6          -1.6990    -1.0280     3.6420 c3         1 RGG       0.168600
     17 O6          -2.1650    -0.6350     2.3420 oh         1 RGG      -0.697000
     18 HO3         -1.9210    -4.7550    -3.7090 ho         1 RGG       0.450000
     19 H3           0.3530    -4.3900    -3.5980 h1         1 RGG       0.028200
     20 H3'A        -0.5620    -3.0920    -2.8100 h1         1 RGG       0.028200
     21 H2           0.6810    -5.5030    -1.3790 h1         1 RGG       0.052700
     22 HO2          2.3220    -4.1460    -2.0060 ho         1 RGG       0.501000
     23 H1          -0.6170    -3.0030    -0.1690 h1         1 RGG       0.051200
     24 H1'A        -1.3550    -4.6170    -0.2200 h1         1 RGG       0.051200
     25 H11         -1.3350    -4.7520     2.2330 h2         1 RGG       0.030700
     26 H9           1.4570    -4.3360     3.4360 h1         1 RGG       0.050700
     27 H10          1.0360    -6.3850     2.3620 ho         1 RGG       0.518000
     28 H8          -1.1690    -5.0590     4.8560 h1         1 RGG       0.084700
     29 H7           1.1700    -4.0870     6.0960 ho         1 RGG       0.451000
     30 H4          -1.1410    -2.8080     5.8150 h1         1 RGG       0.090700
     31 HO4          1.0020    -2.0590     4.0870 ho         1 RGG       0.519000
     32 H5          -2.2720    -3.1140     3.6180 h1         1 RGG       0.038700
     33 H61         -2.4660    -0.8390     4.4060 h1         1 RGG       0.059700
     34 H62         -0.8120    -0.4400     3.9150 h1         1 RGG       0.059700
     35 HO6         -1.6390    -1.1910     1.7190 ho         1 RGG       0.495000
@<TRIPOS>BOND
     1     1     2 1   
     2     1    18 1   
     3     2     3 1   
     4     2    19 1   
     5     2    20 1   
     6     3     4 1   
     7     3     5 1   
     8     3    21 1   
     9     4    22 1   
    10     5     6 1   
    11     5    23 1   
    12     5    24 1   
    13     6     7 1   
    14     7     8 1   
    15     7    15 1   
    16     7    25 1   
    17     8     9 1   
    18     8    10 1   
    19     8    26 1   
    20     9    27 1   
    21    10    11 1   
    22    10    12 1   
    23    10    28 1   
    24    11    29 1   
    25    12    13 1   
    26    12    14 1   
    27    12    30 1   
    28    13    31 1   
    29    14    15 1   
    30    14    16 1   
    31    14    32 1   
    32    16    17 1   
    33    16    33 1   
    34    16    34 1   
    35    17    35 1   
@<TRIPOS>SUBSTRUCTURE
     1 RGG         1 TEMP              0 ****  ****    0 ROOT
