@<TRIPOS>MOLECULE
RGI
    9     8     1     0     0
SMALL
bcc


@<TRIPOS>ATOM
      1 C1           1.9690     0.0070     0.0220 c3         1 RGI       0.116300
      2 C           -0.5020    -0.0270     0.0700 c          1 RGI       1.001600
      3 O           -0.4380    -1.2690     0.1910 o          1 RGI      -0.856800
      4 N            0.7050     0.6810     0.1710 ns         1 RGI      -0.623900
      5 OXT         -1.5330     0.6610    -0.1010 o          1 RGI      -0.856800
      6 H1C1         2.1140    -0.7370     0.8050 h1         1 RGI      -0.008300
      7 HA2          2.0950    -0.5040    -0.9400 h1         1 RGI      -0.008300
      8 HB3          2.7730     0.7370     0.1140 h1         1 RGI      -0.008300
      9 HA           0.6740     1.6140    -0.2040 hn         1 RGI       0.244500
@<TRIPOS>BOND
     1     1     4 1   
     2     1     6 1   
     3     1     7 1   
     4     1     8 1   
     5     2     3 1   
     6     2     4 1   
     7     2     5 1   
     8     4     9 1   
@<TRIPOS>SUBSTRUCTURE
     1 RGI         1 TEMP              0 ****  ****    0 ROOT
