@<TRIPOS>MOLECULE
RGI
    9     8     1     0     0
SMALL
No Charge or Current Charge


@<TRIPOS>ATOM
      1 C1           2.0090    -0.0030     0.0150 c3         1 RGI       0.116300
      2 C           -0.5000    -0.0340     0.0200 c          1 RGI       0.724000
      3 O           -0.5040    -1.2510     0.0450 o          1 RGI      -0.751500
      4 N            0.6920     0.6290     0.0040 ns         1 RGI      -0.556900
      5 OXT         -1.5010     0.6530     0.0070 o          1 RGI      -0.751500
      6 H1C1         2.1220    -0.6050     0.9260 h1         1 RGI      -0.008300
      7 HA2          2.1190    -0.6420    -0.8700 h1         1 RGI      -0.008300
      8 HB3          2.7800     0.7770    -0.0020 h1         1 RGI      -0.008300
      9 HA           0.6410     1.6380    -0.0160 hn         1 RGI       0.244500
@<TRIPOS>BOND
     1     1     4 1   
     2     1     6 1   
     3     1     7 1   
     4     1     8 1   
     5     2     3 1   
     6     2     4 1   
     7     2     5 1   
     8     4     9 1   
@<TRIPOS>SUBSTRUCTURE
     1 RGI         1 TEMP              0 ****  ****    0 ROOT
