@<TRIPOS>MOLECULE
RGJ
   44    46     1     0     0
SMALL
No Charge or Current Charge


@<TRIPOS>ATOM
      1 Cl          -6.1560    -1.2510     0.8320 cl         1 RGJ      -0.192000
      2 C14         -4.5120    -0.9030     0.3150 ca         1 RGJ       0.126000
      3 N2          -0.5490    -0.0530    -0.9170 nu         1 RGJ      -0.985000
      4 C10          0.4470     0.7880    -0.4110 ca         1 RGJ       0.422000
      5 O           -1.7620     2.6540    -1.3730 o          1 RGJ      -0.590100
      6 N           -1.5610     3.6580     0.6480 ns         1 RGJ      -0.502900
      7 C9           1.7550     0.2840    -0.2100 ca         1 RGJ      -0.123000
      8 C7           3.4220    -1.5220    -0.3110 ca         1 RGJ       0.123100
      9 O1           3.7980    -2.8210    -0.6160 os         1 RGJ      -0.317100
     10 C17          2.8860    -3.7830    -1.1760 c3         1 RGJ       0.142900
     11 C6           4.3880    -0.6530     0.2410 ca         1 RGJ       0.151100
     12 C18          6.7220    -0.3250     1.0060 c3         1 RGJ       0.141900
     13 C11         -1.8690    -0.3330    -0.5130 ca         1 RGJ       0.262000
     14 C2           0.1710     2.1220    -0.0690 ca         1 RGJ      -0.296600
     15 C           -2.8000     4.4350     0.5770 c3         1 RGJ       0.091300
     16 C4           2.7260     1.1440     0.3510 ca         1 RGJ       0.319000
     17 N1           2.4420     2.4140     0.6930 nb         1 RGJ      -0.689000
     18 C3           1.1990     2.8840     0.4870 ca         1 RGJ       0.396900
     19 C8           2.1080    -1.0540    -0.5330 ca         1 RGJ      -0.172000
     20 C5           4.0290     0.6710     0.5680 ca         1 RGJ      -0.184000
     21 O2           5.6710    -1.1340     0.4500 os         1 RGJ      -0.316100
     22 C13         -3.6310    -0.2360     1.1810 ca         1 RGJ      -0.103000
     23 C12         -2.3140     0.0430     0.7710 ca         1 RGJ      -0.114000
     24 C15         -4.0800    -1.3010    -0.9590 ca         1 RGJ      -0.124000
     25 C16         -2.7660    -1.0210    -1.3700 ca         1 RGJ       0.173000
     26 F           -2.3660    -1.4190    -2.6020 f          1 RGJ      -0.166000
     27 H13         -3.9670     0.0610     2.1710 ha         1 RGJ       0.133000
     28 H15         -4.7580    -1.8240    -1.6270 ha         1 RGJ       0.150000
     29 H2          -0.2380    -0.6080    -1.7140 hn         1 RGJ       0.511000
     30 H           -0.9970     3.7230     1.4870 hn         1 RGJ       0.315500
     31 HC1         -2.7670     5.1060    -0.2910 h1         1 RGJ       0.041033
     32 HC2         -3.6570     3.7560     0.4830 h1         1 RGJ       0.041033
     33 HC3         -2.9110     5.0330     1.4920 h1         1 RGJ       0.041033
     34 H8           1.3620    -1.7240    -0.9460 ha         1 RGJ       0.115000
     35 H171         2.5010    -3.4380    -2.1440 h1         1 RGJ       0.042700
     36 H172         3.3960    -4.7410    -1.3360 h1         1 RGJ       0.042700
     37 H173         2.0390    -3.9580    -0.5000 h1         1 RGJ       0.042700
     38 H5           4.7520     1.3560     0.9970 ha         1 RGJ       0.142000
     39 H181         7.6490    -0.9060     1.0810 h1         1 RGJ       0.045700
     40 H182         6.9200     0.5490     0.3720 h1         1 RGJ       0.045700
     41 H183         6.4570     0.0220     2.0130 h1         1 RGJ       0.045700
     42 H12         -1.6390     0.5460     1.4580 ha         1 RGJ       0.128000
     43 H3           1.0450     3.9300     0.7520 h4         1 RGJ       0.020100
     44 C1          -1.1360     2.7880    -0.3320 c          1 RGJ       0.621700
@<TRIPOS>BOND
     1     1     2 1   
     2     2    22 ar  
     3     2    24 ar  
     4     3     4 1   
     5     3    13 1   
     6     3    29 1   
     7     4     7 ar  
     8     4    14 ar  
     9     5    44 2   
    10     6    15 1   
    11     6    30 1   
    12     6    44 1   
    13     7    16 ar  
    14     7    19 ar  
    15     8     9 1   
    16     8    11 ar  
    17     8    19 ar  
    18     9    10 1   
    19    10    35 1   
    20    10    36 1   
    21    10    37 1   
    22    11    20 ar  
    23    11    21 1   
    24    12    21 1   
    25    12    39 1   
    26    12    40 1   
    27    12    41 1   
    28    13    23 ar  
    29    13    25 ar  
    30    14    18 ar  
    31    14    44 1   
    32    15    31 1   
    33    15    32 1   
    34    15    33 1   
    35    16    17 ar  
    36    16    20 ar  
    37    17    18 ar  
    38    18    43 1   
    39    19    34 1   
    40    20    38 1   
    41    22    23 ar  
    42    22    27 1   
    43    23    42 1   
    44    24    25 ar  
    45    24    28 1   
    46    25    26 1   
@<TRIPOS>SUBSTRUCTURE
     1 RGJ         1 TEMP              0 ****  ****    0 ROOT
