@<TRIPOS>MOLECULE
RGJ
   44    46     1     0     0
SMALL
abcg2


@<TRIPOS>ATOM
      1 CL          -6.2790    -0.1370     0.4660 cl         1 RGJ      -0.192000
      2 C14         -4.5820    -0.1950     0.1290 ca         1 RGJ       0.126000
      3 N2          -0.4980    -0.3110    -0.7350 nu         1 RGJ      -0.985000
      4 C10          0.4440     0.5820    -0.3000 ca         1 RGJ       0.422000
      5 O           -1.6760     2.4470    -1.4210 o          1 RGJ      -0.590100
      6 N           -1.7300     3.2150     0.6970 ns         1 RGJ      -0.502900
      7 C9           1.7910     0.1490    -0.1340 ca         1 RGJ      -0.123000
      8 C7           3.5140    -1.5540    -0.2330 ca         1 RGJ       0.123100
      9 O1           4.0030    -2.7840    -0.4410 os         1 RGJ      -0.317100
     10 C17          3.1100    -3.7930    -0.8730 c3         1 RGJ       0.142900
     11 C6           4.4870    -0.5870     0.1810 ca         1 RGJ       0.151100
     12 C18          6.7510    -0.1610     0.6960 c3         1 RGJ       0.141900
     13 C11         -1.8560    -0.2700    -0.4250 ca         1 RGJ       0.262000
     14 C2           0.1480     1.9060     0.0040 ca         1 RGJ      -0.296600
     15 C           -3.0170     3.8560     0.5720 c3         1 RGJ       0.091300
     16 C4           2.7440     1.0930     0.3040 ca         1 RGJ       0.319000
     17 N1           2.4300     2.3710     0.6130 nb         1 RGJ      -0.689000
     18 C3           1.1830     2.7330     0.4710 ca         1 RGJ       0.396900
     19 C8           2.2050    -1.1850    -0.3740 ca         1 RGJ      -0.172000
     20 C5           4.0950     0.6960     0.4480 ca         1 RGJ      -0.184000
     21 O2           5.7340    -1.0550     0.2810 os         1 RGJ      -0.316100
     22 C13         -3.6710     0.0510     1.1420 ca         1 RGJ      -0.103000
     23 C12         -2.3150    -0.0030     0.8610 ca         1 RGJ      -0.114000
     24 C15         -4.1600    -0.4930    -1.1580 ca         1 RGJ      -0.124000
     25 C16         -2.8070    -0.5110    -1.4100 ca         1 RGJ       0.173000
     26 F           -2.3830    -0.7780    -2.6510 f          1 RGJ      -0.166000
     27 H13         -4.0060     0.2690     2.1470 ha         1 RGJ       0.133000
     28 H15         -4.8650    -0.6850    -1.9560 ha         1 RGJ       0.150000
     29 H2          -0.1860    -1.0800    -1.3060 hn         1 RGJ       0.511000
     30 H           -1.3200     3.1520     1.6140 hn         1 RGJ       0.315500
     31 HC1         -3.0400     4.5290    -0.2840 h1         1 RGJ       0.041033
     32 HC2         -3.8200     3.1240     0.4570 h1         1 RGJ       0.041033
     33 HC3         -3.2040     4.4350     1.4710 h1         1 RGJ       0.041033
     34 H8           1.4750    -1.9320    -0.6550 ha         1 RGJ       0.115000
     35 H171         2.6400    -3.5350    -1.8250 h1         1 RGJ       0.042700
     36 H172         3.7030    -4.6940    -1.0040 h1         1 RGJ       0.042700
     37 H173         2.3300    -3.9870    -0.1330 h1         1 RGJ       0.042700
     38 H5           4.8000     1.4480     0.7760 ha         1 RGJ       0.142000
     39 H181         7.6760    -0.7310     0.7050 h1         1 RGJ       0.045700
     40 H182         6.8570     0.6790     0.0060 h1         1 RGJ       0.045700
     41 H183         6.5630     0.2260     1.7000 h1         1 RGJ       0.045700
     42 H12         -1.6010     0.1590     1.6580 ha         1 RGJ       0.128000
     43 H3           0.9540     3.7690     0.7030 h4         1 RGJ       0.020100
     44 C1          -1.1730     2.5300    -0.3100 c          1 RGJ       0.621700
@<TRIPOS>BOND
     1     1     2 1   
     2     2    22 ar  
     3     2    24 ar  
     4     3     4 1   
     5     3    13 1   
     6     3    29 1   
     7     4     7 ar  
     8     4    14 ar  
     9     5    44 2   
    10     6    15 1   
    11     6    30 1   
    12     6    44 1   
    13     7    16 ar  
    14     7    19 ar  
    15     8     9 1   
    16     8    11 ar  
    17     8    19 ar  
    18     9    10 1   
    19    10    35 1   
    20    10    36 1   
    21    10    37 1   
    22    11    20 ar  
    23    11    21 1   
    24    12    21 1   
    25    12    39 1   
    26    12    40 1   
    27    12    41 1   
    28    13    23 ar  
    29    13    25 ar  
    30    14    18 ar  
    31    14    44 1   
    32    15    31 1   
    33    15    32 1   
    34    15    33 1   
    35    16    17 ar  
    36    16    20 ar  
    37    17    18 ar  
    38    18    43 1   
    39    19    34 1   
    40    20    38 1   
    41    22    23 ar  
    42    22    27 1   
    43    23    42 1   
    44    24    25 ar  
    45    24    28 1   
    46    25    26 1   
@<TRIPOS>SUBSTRUCTURE
     1 RGJ         1 TEMP              0 ****  ****    0 ROOT
