@<TRIPOS>MOLECULE
RGK
   29    31     1     0     0
SMALL
No Charge or Current Charge


@<TRIPOS>ATOM
      1 C           -4.4390     0.2540     0.0010 ca         1 RGK       0.343000
      2 N           -5.7980     0.3700    -0.0380 nv         1 RGK      -1.091000
      3 O            2.1310    -2.7360     0.5740 o          1 RGK      -0.544000
      4 C1          -3.6530     1.3460     0.3830 ca         1 RGK      -0.203500
      5 N1           0.5650     1.0160    -0.1000 nc         1 RGK      -0.650100
      6 C2          -2.2530     1.2330     0.4210 ca         1 RGK      -0.019000
      7 N2           0.3920    -1.3350     0.3240 ns         1 RGK      -0.428400
      8 C3          -1.6190     0.0110     0.0920 ca         1 RGK      -0.217900
      9 C4          -2.4280    -1.0770    -0.3160 ca         1 RGK      -0.019000
     10 C5          -3.8270    -0.9530    -0.3510 ca         1 RGK      -0.203500
     11 C6          -0.1430    -0.1000     0.0960 cd         1 RGK       0.584500
     12 C7           1.9560     0.8200    -0.0770 ca         1 RGK       0.200400
     13 C8           2.7750     1.9470    -0.2850 ca         1 RGK      -0.110000
     14 C9           4.1760     1.8400    -0.2800 ca         1 RGK      -0.074000
     15 C10          4.7800     0.5930    -0.0640 ca         1 RGK      -0.139000
     16 C11          3.9820    -0.5420     0.1460 ca         1 RGK      -0.038000
     17 C12          2.5750    -0.4270     0.1390 ca         1 RGK      -0.210600
     18 C13          1.7120    -1.6080     0.3640 c          1 RGK       0.578600
     19 HN          -6.2240     1.2910     0.0420 hn         1 RGK       0.468500
     20 HNA         -6.3520    -0.3590    -0.4850 hn         1 RGK       0.468500
     21 H1          -4.1220     2.2880     0.6510 ha         1 RGK       0.117000
     22 H2          -1.6650     2.0990     0.7220 ha         1 RGK       0.123000
     23 HN2         -0.2200    -2.1150     0.4980 hn         1 RGK       0.327500
     24 H4          -1.9830    -2.0230    -0.6200 ha         1 RGK       0.123000
     25 H5          -4.4330    -1.8000    -0.6610 ha         1 RGK       0.117000
     26 H8           2.3150     2.9170    -0.4540 ha         1 RGK       0.130000
     27 H9           4.7900     2.7230    -0.4440 ha         1 RGK       0.115000
     28 H10          5.8640     0.5050    -0.0590 ha         1 RGK       0.118000
     29 H11          4.4570    -1.5070     0.3150 ha         1 RGK       0.134000
@<TRIPOS>BOND
     1     1     2 1   
     2     1     4 ar  
     3     1    10 ar  
     4     2    19 1   
     5     2    20 1   
     6     3    18 2   
     7     4     6 ar  
     8     4    21 1   
     9     5    11 2   
    10     5    12 1   
    11     6     8 ar  
    12     6    22 1   
    13     7    11 1   
    14     7    18 1   
    15     7    23 1   
    16     8     9 ar  
    17     8    11 1   
    18     9    10 ar  
    19     9    24 1   
    20    10    25 1   
    21    12    13 ar  
    22    12    17 ar  
    23    13    14 ar  
    24    13    26 1   
    25    14    15 ar  
    26    14    27 1   
    27    15    16 ar  
    28    15    28 1   
    29    16    17 ar  
    30    16    29 1   
    31    17    18 1   
@<TRIPOS>SUBSTRUCTURE
     1 RGK         1 TEMP              0 ****  ****    0 ROOT
