@<TRIPOS>MOLECULE
RGK
   29    31     1     0     0
SMALL
abcg2


@<TRIPOS>ATOM
      1 C           -4.4240     0.2930     0.0400 ca         1 RGK       0.343000
      2 N           -5.7740     0.4480     0.0780 nv         1 RGK      -1.091000
      3 O            2.1830    -2.7870     0.0610 o          1 RGK      -0.544000
      4 C1          -3.5650     1.4060     0.0510 ca         1 RGK      -0.203500
      5 N1           0.5720     0.9340     0.0260 nc         1 RGK      -0.650100
      6 C2          -2.2000     1.2410     0.0530 ca         1 RGK      -0.019000
      7 N2           0.4110    -1.3850     0.0550 ns         1 RGK      -0.428400
      8 C3          -1.6110    -0.0300     0.0450 ca         1 RGK      -0.217900
      9 C4          -2.4690    -1.1340     0.0330 ca         1 RGK      -0.019000
     10 C5          -3.8400    -0.9830     0.0300 ca         1 RGK      -0.203500
     11 C6          -0.1500    -0.1360     0.0410 cd         1 RGK       0.584500
     12 C7           1.9340     0.8070     0.0220 ca         1 RGK       0.200400
     13 C8           2.7200     1.9710     0.0050 ca         1 RGK      -0.110000
     14 C9           4.0940     1.8790    -0.0010 ca         1 RGK      -0.074000
     15 C10          4.7310     0.6320     0.0100 ca         1 RGK      -0.139000
     16 C11          3.9760    -0.5200     0.0260 ca         1 RGK      -0.038000
     17 C12          2.5810    -0.4400     0.0320 ca         1 RGK      -0.210600
     18 C13          1.7630    -1.6430     0.0500 c          1 RGK       0.578600
     19 HN          -6.1550     1.3430    -0.1790 hn         1 RGK       0.468500
     20 HNA         -6.3480    -0.3330    -0.1900 hn         1 RGK       0.468500
     21 H1          -3.9840     2.4050     0.0570 ha         1 RGK       0.117000
     22 H2          -1.5620     2.1150     0.0580 ha         1 RGK       0.123000
     23 HN2         -0.1850    -2.2000     0.0700 hn         1 RGK       0.327500
     24 H4          -2.0950    -2.1510     0.0210 ha         1 RGK       0.123000
     25 H5          -4.4730    -1.8620     0.0190 ha         1 RGK       0.117000
     26 H8           2.2250     2.9330    -0.0040 ha         1 RGK       0.130000
     27 H9           4.6900     2.7830    -0.0140 ha         1 RGK       0.115000
     28 H10          5.8110     0.5760     0.0050 ha         1 RGK       0.118000
     29 H11          4.4550    -1.4900     0.0340 ha         1 RGK       0.134000
@<TRIPOS>BOND
     1     1     2 1   
     2     1     4 ar  
     3     1    10 ar  
     4     2    19 1   
     5     2    20 1   
     6     3    18 2   
     7     4     6 ar  
     8     4    21 1   
     9     5    11 2   
    10     5    12 1   
    11     6     8 ar  
    12     6    22 1   
    13     7    11 1   
    14     7    18 1   
    15     7    23 1   
    16     8     9 ar  
    17     8    11 1   
    18     9    10 ar  
    19     9    24 1   
    20    10    25 1   
    21    12    13 ar  
    22    12    17 ar  
    23    13    14 ar  
    24    13    26 1   
    25    14    15 ar  
    26    14    27 1   
    27    15    16 ar  
    28    15    28 1   
    29    16    17 ar  
    30    16    29 1   
    31    17    18 1   
@<TRIPOS>SUBSTRUCTURE
     1 RGK         1 TEMP              0 ****  ****    0 ROOT
