@<TRIPOS>MOLECULE
RGL
   26    25     1     0     0
SMALL
No Charge or Current Charge


@<TRIPOS>ATOM
      1 N           -2.3100    22.1190    74.7500 n8         1 RGL      -0.986200
      2 CA          -1.4940    22.1640    76.0130 c3         1 RGL       0.049500
      3 C            0.0200    22.5520    75.8470 c          1 RGL       0.565900
      4 O            0.5590    22.7990    74.7710 o          1 RGL      -0.465100
      5 CB          -1.6310    20.8300    76.7960 c3         1 RGL      -0.067400
      6 CG          -3.0670    20.5160    77.2880 c3         1 RGL      -0.105400
      7 CD          -3.1430    19.2190    78.1180 c3         1 RGL       0.056600
      8 NE          -4.5360    18.9650    78.5420 nu         1 RGL      -0.889000
      9 CZ          -5.1420    19.2950    79.6640 cz         1 RGL       0.936600
     10 NH1         -4.5870    20.1180    80.5040 nv         1 RGL      -0.610800
     11 NH2         -6.3390    18.8440    79.8890 nv         1 RGL      -0.610800
     12 HX           0.6010    22.6000    76.7950 h4         1 RGL      -0.008800
     13 HN1         -3.3020    21.9970    74.9870 hn         1 RGL       0.410500
     14 HN2         -2.2830    23.0370    74.2870 hn         1 RGL       0.410500
     15 HA          -1.9240    22.9550    76.6420 h1         1 RGL       0.029700
     16 HB1         -1.2680    20.0030    76.1720 hc         1 RGL       0.059700
     17 HB2         -0.9700    20.8680    77.6730 hc         1 RGL       0.059700
     18 HG1         -3.4330    21.3570    77.8900 hc         1 RGL       0.055700
     19 HG2         -3.7390    20.4210    76.4260 hc         1 RGL       0.055700
     20 HD1         -2.7840    18.3820    77.5010 h1         1 RGL       0.081200
     21 HD2         -2.4670    19.2900    78.9830 h1         1 RGL       0.081200
     22 HE          -5.0950    18.4190    77.8940 hn         1 RGL       0.373000
     23 HH11        -5.0490    20.4180    81.3460 hn         1 RGL       0.379250
     24 HH12        -3.6990    20.5400    80.2970 hn         1 RGL       0.379250
     25 HH21        -6.7780    18.1870    79.2670 hn         1 RGL       0.379250
     26 HH22        -6.8430    19.0700    80.7300 hn         1 RGL       0.379250
@<TRIPOS>BOND
     1     1     2 1   
     2     1    13 1   
     3     1    14 1   
     4     2     3 1   
     5     2     5 1   
     6     2    15 1   
     7     3     4 2   
     8     3    12 1   
     9     5     6 1   
    10     5    16 1   
    11     5    17 1   
    12     6     7 1   
    13     6    18 1   
    14     6    19 1   
    15     7     8 1   
    16     7    20 1   
    17     7    21 1   
    18     8     9 2   
    19     8    22 1   
    20     9    10 1   
    21     9    11 1   
    22    10    23 1   
    23    10    24 1   
    24    11    25 1   
    25    11    26 1   
@<TRIPOS>SUBSTRUCTURE
     1 RGL         1 TEMP              0 ****  ****    0 ROOT
