@<TRIPOS>MOLECULE
RGL
   26    25     1     0     0
SMALL
abcg2


@<TRIPOS>ATOM
      1 N           -2.3090    22.1370    74.8440 n8         1 RGL      -0.986200
      2 CA          -1.5730    22.1740    76.0870 c3         1 RGL       0.049500
      3 C           -0.1200    22.4790    75.8500 c          1 RGL       0.565900
      4 O            0.3620    22.7630    74.7830 o          1 RGL      -0.465100
      5 CB          -1.6740    20.8450    76.8420 c3         1 RGL      -0.067400
      6 CG          -3.0920    20.5200    77.2950 c3         1 RGL      -0.105400
      7 CD          -3.1200    19.2260    78.1000 c3         1 RGL       0.056600
      8 NE          -4.4520    18.8360    78.5260 nu         1 RGL      -0.889000
      9 CZ          -5.0960    19.3120    79.5850 cz         1 RGL       0.936600
     10 NH1         -4.5200    20.1830    80.4030 nv         1 RGL      -0.610800
     11 NH2         -6.3380    18.9100    79.8300 nv         1 RGL      -0.610800
     12 HX           0.4970    22.4410    76.7670 h4         1 RGL      -0.008800
     13 HN1         -3.3020    22.1230    75.0350 hn         1 RGL       0.410500
     14 HN2         -2.1440    22.9840    74.3150 hn         1 RGL       0.410500
     15 HA          -1.9050    22.9640    76.7870 h1         1 RGL       0.029700
     16 HB1         -1.2940    20.0420    76.2040 hc         1 RGL       0.059700
     17 HB2         -1.0220    20.8870    77.7210 hc         1 RGL       0.059700
     18 HG1         -3.4840    21.3490    77.8920 hc         1 RGL       0.055700
     19 HG2         -3.7550    20.4050    76.4340 hc         1 RGL       0.055700
     20 HD1         -2.7380    18.4040    77.4960 h1         1 RGL       0.081200
     21 HD2         -2.4600    19.2880    78.9690 h1         1 RGL       0.081200
     22 HE          -4.9640    18.2190    77.9150 hn         1 RGL       0.373000
     23 HH11        -4.9970    20.5130    81.2250 hn         1 RGL       0.379250
     24 HH12        -3.5990    20.5510    80.2400 hn         1 RGL       0.379250
     25 HH21        -6.7720    18.1920    79.2750 hn         1 RGL       0.379250
     26 HH22        -6.8330    19.2150    80.6520 hn         1 RGL       0.379250
@<TRIPOS>BOND
     1     1     2 1   
     2     1    13 1   
     3     1    14 1   
     4     2     3 1   
     5     2     5 1   
     6     2    15 1   
     7     3     4 2   
     8     3    12 1   
     9     5     6 1   
    10     5    16 1   
    11     5    17 1   
    12     6     7 1   
    13     6    18 1   
    14     6    19 1   
    15     7     8 1   
    16     7    20 1   
    17     7    21 1   
    18     8     9 2   
    19     8    22 1   
    20     9    10 1   
    21     9    11 1   
    22    10    23 1   
    23    10    24 1   
    24    11    25 1   
    25    11    26 1   
@<TRIPOS>SUBSTRUCTURE
     1 RGL         1 TEMP              0 ****  ****    0 ROOT
