@<TRIPOS>MOLECULE
RGM
   36    39     1     0     0
SMALL
bcc


@<TRIPOS>ATOM
      1 C10         -1.0280    -1.1530    -0.6590 c          1 RGM       0.604700
      2 C13         -3.5980    -0.9850    -0.7050 cc         1 RGM      -0.070300
      3 C15         -3.7650     1.0000     0.3200 cc         1 RGM      -0.156300
      4 C01         -0.5680    -0.3070     2.2600 c3         1 RGM       0.159100
      5 C03         -1.1780     1.4300     0.6210 c5         1 RGM       0.248800
      6 C04         -0.4890     2.0030    -0.6360 c5         1 RGM      -0.064400
      7 C05          0.4530     0.8730    -1.0800 c5         1 RGM      -0.064700
      8 C06          1.9320     1.1610    -0.8030 c5         1 RGM       0.120000
      9 C08          1.4450    -1.0770    -0.0130 c5         1 RGM       0.121000
     10 C09          0.1420    -0.3070    -0.1260 c5         1 RGM       0.072200
     11 C12         -2.3180    -0.5430    -0.4220 cd         1 RGM      -0.268600
     12 C16         -2.4340     0.7190     0.2280 cd         1 RGM      -0.149300
     13 C18          4.7160     0.8320    -0.1910 c3         1 RGM      -0.175100
     14 N02         -0.2000     0.4430     1.0810 n3         1 RGM      -0.710600
     15 N07          2.4700    -0.0830    -0.2790 n          1 RGM      -0.475800
     16 N14         -4.4460    -0.0470    -0.2540 na         1 RGM      -0.155100
     17 O11         -0.8640    -2.2100    -1.2410 o          1 RGM      -0.527100
     18 O19          4.1250    -1.3830     0.5020 o          1 RGM      -0.612100
     19 H1          -3.9490    -1.8870    -1.1780 h4         1 RGM       0.181000
     20 H2          -4.2900     1.8430     0.7390 h4         1 RGM       0.171000
     21 H3          -1.4680    -0.9270     2.1520 h1         1 RGM       0.037367
     22 H4           0.2520    -0.9580     2.5610 h1         1 RGM       0.037367
     23 H5          -0.7420     0.3880     3.0820 h1         1 RGM       0.037367
     24 H6          -1.3510     2.1870     1.3890 h1         1 RGM       0.077700
     25 H7          -1.2170     2.2630    -1.4020 hc         1 RGM       0.054700
     26 H8           0.0670     2.9090    -0.3950 hc         1 RGM       0.054700
     27 H9           0.3160     0.5960    -2.1270 hc         1 RGM       0.072700
     28 H10          2.4470     1.4670    -1.7150 h1         1 RGM       0.044200
     29 H11          2.0430     1.9680    -0.0740 h1         1 RGM       0.044200
     30 H12          1.5790    -1.5320     0.9690 h1         1 RGM       0.072700
     31 H13          1.4840    -1.8810    -0.7500 h1         1 RGM       0.072700
     32 H14          4.5630     1.3350    -1.1450 hc         1 RGM       0.058033
     33 H15          4.5910     1.5810     0.5940 hc         1 RGM       0.058033
     34 H16          5.7380     0.4640    -0.1500 hc         1 RGM       0.058033
     35 H18         -5.4500    -0.1060    -0.3210 hn         1 RGM       0.299700
     36 C17          3.7560    -0.3100     0.0340 c          1 RGM       0.673100
@<TRIPOS>BOND
     1     1    10 1   
     2     1    11 1   
     3     1    17 2   
     4     2    11 2   
     5     2    16 1   
     6     2    19 1   
     7     3    12 2   
     8     3    16 1   
     9     3    20 1   
    10     4    14 1   
    11     4    21 1   
    12     4    22 1   
    13     4    23 1   
    14     5     6 1   
    15     5    12 1   
    16     5    14 1   
    17     5    24 1   
    18     6     7 1   
    19     6    25 1   
    20     6    26 1   
    21     7     8 1   
    22     7    10 1   
    23     7    27 1   
    24     8    15 1   
    25     8    28 1   
    26     8    29 1   
    27     9    10 1   
    28     9    15 1   
    29     9    30 1   
    30     9    31 1   
    31    10    14 1   
    32    11    12 1   
    33    13    32 1   
    34    13    33 1   
    35    13    34 1   
    36    13    36 1   
    37    15    36 1   
    38    16    35 1   
    39    18    36 2   
@<TRIPOS>SUBSTRUCTURE
     1 RGM         1 TEMP              0 ****  ****    0 ROOT
