@<TRIPOS>MOLECULE
RGM
   36    39     1     0     0
SMALL
No Charge or Current Charge


@<TRIPOS>ATOM
      1 C10         -1.0420    -1.2770    -0.7130 c          1 RGM       0.604700
      2 C13         -3.6030    -1.0100    -0.7820 cc         1 RGM      -0.103000
      3 C15         -3.7030     1.0420     0.2880 cc         1 RGM      -0.189000
      4 C01         -0.6200    -0.3200     2.3580 c3         1 RGM       0.159100
      5 C03         -1.2300     1.4660     0.6670 c5         1 RGM       0.248800
      6 C04         -0.5000     2.0310    -0.5940 c5         1 RGM      -0.064400
      7 C05          0.4370     0.8460    -1.0640 c5         1 RGM      -0.064700
      8 C06          1.9050     1.2160    -0.6710 c5         1 RGM       0.120000
      9 C08          1.4510    -1.1120     0.0330 c5         1 RGM       0.121000
     10 C09          0.0990    -0.3360    -0.1070 c5         1 RGM       0.072200
     11 C12         -2.3370    -0.5930    -0.4740 cd         1 RGM      -0.268600
     12 C16         -2.4060     0.6370     0.1720 cd         1 RGM      -0.149300
     13 C18          4.8300     0.8260    -0.3350 c3         1 RGM      -0.175100
     14 N02         -0.2350     0.4530     1.1520 n3         1 RGM      -0.710600
     15 N07          2.4750    -0.0890    -0.2770 n          1 RGM      -0.408800
     16 N14         -4.4460     0.0100    -0.3080 na         1 RGM      -0.104000
     17 O11         -0.9250    -2.3830    -1.2320 o          1 RGM      -0.527100
     18 O19          4.2410    -1.3780     0.4010 o          1 RGM      -0.612100
     19 H1          -3.9680    -1.9070    -1.2720 h4         1 RGM       0.163000
     20 H2          -4.1490     1.9320     0.7180 h4         1 RGM       0.153000
     21 H3          -1.4960    -0.9540     2.1690 h1         1 RGM       0.037367
     22 H4           0.2040    -0.9650     2.6880 h1         1 RGM       0.037367
     23 H5          -0.8640     0.3600     3.1850 h1         1 RGM       0.037367
     24 H6          -1.5280     2.2240     1.4070 h1         1 RGM       0.077700
     25 H7          -1.2160     2.3160    -1.3730 hc         1 RGM       0.054700
     26 H8           0.0580     2.9410    -0.3500 hc         1 RGM       0.054700
     27 H9           0.3400     0.5850    -2.1240 hc         1 RGM       0.072700
     28 H10          2.4380     1.6710    -1.5160 h1         1 RGM       0.044200
     29 H11          1.9540     1.9080     0.1800 h1         1 RGM       0.044200
     30 H12          1.5830    -1.5410     1.0340 h1         1 RGM       0.072700
     31 H13          1.5250    -1.9330    -0.6930 h1         1 RGM       0.072700
     32 H14          4.7210     1.1230    -1.3840 hc         1 RGM       0.058033
     33 H15          4.5230     1.7300     0.2030 hc         1 RGM       0.058033
     34 H16          5.8660     0.5530    -0.1040 hc         1 RGM       0.058033
     35 H18         -5.4590    -0.0010    -0.3870 hn         1 RGM       0.350000
     36 C17          3.8430    -0.3040    -0.0300 c          1 RGM       0.606100
@<TRIPOS>BOND
     1     1    10 1   
     2     1    11 1   
     3     1    17 2   
     4     2    11 2   
     5     2    16 1   
     6     2    19 1   
     7     3    12 2   
     8     3    16 1   
     9     3    20 1   
    10     4    14 1   
    11     4    21 1   
    12     4    22 1   
    13     4    23 1   
    14     5     6 1   
    15     5    12 1   
    16     5    14 1   
    17     5    24 1   
    18     6     7 1   
    19     6    25 1   
    20     6    26 1   
    21     7     8 1   
    22     7    10 1   
    23     7    27 1   
    24     8    15 1   
    25     8    28 1   
    26     8    29 1   
    27     9    10 1   
    28     9    15 1   
    29     9    30 1   
    30     9    31 1   
    31    10    14 1   
    32    11    12 1   
    33    13    32 1   
    34    13    33 1   
    35    13    34 1   
    36    13    36 1   
    37    15    36 1   
    38    16    35 1   
    39    18    36 2   
@<TRIPOS>SUBSTRUCTURE
     1 RGM         1 TEMP              0 ****  ****    0 ROOT
