@<TRIPOS>MOLECULE
RGN
   17    17     1     0     0
SMALL
No Charge or Current Charge


@<TRIPOS>ATOM
      1 C1          19.5430    33.7850   -17.9070 c5         1 RGN      -0.152400
      2 C2          19.0220    33.0090   -19.1590 c5         1 RGN       0.182000
      3 C3          19.5000    33.8330   -20.3980 c5         1 RGN      -0.152400
      4 C4          20.5860    34.7570   -19.8010 c5         1 RGN       0.150800
      5 O1          20.8830    35.8660   -20.6490 oh         1 RGN      -0.651000
      6 C           19.8800    35.1810   -18.4800 c5         1 RGN       0.150800
      7 O           20.7350    35.9320   -17.6160 oh         1 RGN      -0.651000
      8 F           19.5410    31.7160   -19.1880 f          1 RGN      -0.116000
      9 F1          17.6330    32.9060   -19.1430 f          1 RGN      -0.116000
     10 H1          18.7960    33.8330   -17.1060 hc         1 RGN       0.084450
     11 H2          20.4340    33.3020   -17.4860 hc         1 RGN       0.084450
     12 H3          18.6760    34.4150   -20.8270 hc         1 RGN       0.084450
     13 H4          19.8940    33.1970   -21.1980 hc         1 RGN       0.084450
     14 H5          21.5040    34.1900   -19.5840 h1         1 RGN       0.051700
     15 H6          21.3160    36.5330   -20.0690 ho         1 RGN       0.456500
     16 H7          18.9610    35.7480   -18.6950 h1         1 RGN       0.051700
     17 H8          20.2200    36.1280   -16.8020 ho         1 RGN       0.456500
@<TRIPOS>BOND
     1     1     2 1   
     2     1     6 1   
     3     1    10 1   
     4     1    11 1   
     5     2     3 1   
     6     2     8 1   
     7     2     9 1   
     8     3     4 1   
     9     3    12 1   
    10     3    13 1   
    11     4     5 1   
    12     4     6 1   
    13     4    14 1   
    14     5    15 1   
    15     6     7 1   
    16     6    16 1   
    17     7    17 1   
@<TRIPOS>SUBSTRUCTURE
     1 RGN         1 TEMP              0 ****  ****    0 ROOT
