@<TRIPOS>MOLECULE
RGN
   17    17     1     0     0
SMALL
bcc


@<TRIPOS>ATOM
      1 C1          19.4490    33.7790   -17.9100 c5         1 RGN      -0.152400
      2 C2          19.0540    33.0140   -19.1700 c5         1 RGN       0.424600
      3 C3          19.5280    33.8340   -20.3630 c5         1 RGN      -0.152400
      4 C4          20.5310    34.8150   -19.7700 c5         1 RGN       0.127600
      5 O1          20.7140    35.9090   -20.6250 oh         1 RGN      -0.588800
      6 C           19.9020    35.1510   -18.4210 c5         1 RGN       0.127600
      7 O           20.8250    35.8130   -17.6000 oh         1 RGN      -0.588800
      8 F           19.6080    31.7620   -19.1770 f          1 RGN      -0.237300
      9 F1          17.7050    32.7940   -19.2300 f          1 RGN      -0.237300
     10 H1          18.6370    33.8300   -17.1840 hc         1 RGN       0.084450
     11 H2          20.2950    33.2800   -17.4330 hc         1 RGN       0.084450
     12 H3          18.6830    34.3980   -20.7670 hc         1 RGN       0.084450
     13 H4          19.9330    33.2130   -21.1620 hc         1 RGN       0.084450
     14 H5          21.4830    34.2960   -19.5800 h1         1 RGN       0.051700
     15 H6          21.4010    36.4720   -20.2550 ho         1 RGN       0.417500
     16 H7          19.0200    35.7790   -18.6100 h1         1 RGN       0.051700
     17 H8          20.3570    36.1940   -16.8510 ho         1 RGN       0.417500
@<TRIPOS>BOND
     1     1     2 1   
     2     1     6 1   
     3     1    10 1   
     4     1    11 1   
     5     2     3 1   
     6     2     8 1   
     7     2     9 1   
     8     3     4 1   
     9     3    12 1   
    10     3    13 1   
    11     4     5 1   
    12     4     6 1   
    13     4    14 1   
    14     5    15 1   
    15     6     7 1   
    16     6    16 1   
    17     7    17 1   
@<TRIPOS>SUBSTRUCTURE
     1 RGN         1 TEMP              0 ****  ****    0 ROOT
