@<TRIPOS>MOLECULE
RGO
   24    26     1     0     0
SMALL
abcg2


@<TRIPOS>ATOM
      1 C02         -4.8300     5.0350     6.3200 c5         1 RGO       0.104000
      2 C04         -4.4110     6.3830     6.8630 c5         1 RGO      -0.144400
      3 C05         -2.9070     6.1960     7.0320 c5         1 RGO       0.095700
      4 C06         -1.9410     7.3570     6.7770 c5         1 RGO      -0.030100
      5 C07         -0.8550     6.7000     5.9610 ca         1 RGO      -0.135300
      6 C08          0.4020     7.1550     5.6170 ca         1 RGO      -0.070000
      7 C09          1.2010     6.3720     4.7840 ca         1 RGO      -0.129000
      8 C10          0.7370     5.1570     4.2980 ca         1 RGO      -0.086000
      9 C11         -0.5270     4.6810     4.6400 ca         1 RGO      -0.109000
     10 C12         -1.2960     5.4690     5.4750 ca         1 RGO      -0.029000
     11 C14         -3.6280     4.5530     5.4840 c          1 RGO       0.533000
     12 F01         -5.0400     4.1360     7.3240 f          1 RGO      -0.092500
     13 F03         -5.9570     5.0540     5.5800 f          1 RGO      -0.092500
     14 N13         -2.5810     5.2360     5.9700 n          1 RGO      -0.218400
     15 O15         -3.6540     3.7380     4.5890 o          1 RGO      -0.478000
     16 H1          -4.6100     7.1480     6.1080 hc         1 RGO       0.087200
     17 H2          -4.9270     6.6540     7.7820 hc         1 RGO       0.087200
     18 H3          -2.6810     5.7400     8.0000 h1         1 RGO       0.078700
     19 H4          -1.5770     7.7890     7.7080 hc         1 RGO       0.066200
     20 H5          -2.4130     8.1590     6.2030 hc         1 RGO       0.066200
     21 H6           0.7630     8.1070     5.9860 ha         1 RGO       0.117000
     22 H7           2.1900     6.7160     4.5130 ha         1 RGO       0.117000
     23 H8           1.3670     4.5630     3.6500 ha         1 RGO       0.119000
     24 H9          -0.8810     3.7300     4.2680 ha         1 RGO       0.142000
@<TRIPOS>BOND
     1     1     2 1   
     2     1    11 1   
     3     1    12 1   
     4     1    13 1   
     5     2     3 1   
     6     2    16 1   
     7     2    17 1   
     8     3     4 1   
     9     3    14 1   
    10     3    18 1   
    11     4     5 1   
    12     4    19 1   
    13     4    20 1   
    14     5     6 ar  
    15     5    10 ar  
    16     6     7 ar  
    17     6    21 1   
    18     7     8 ar  
    19     7    22 1   
    20     8     9 ar  
    21     8    23 1   
    22     9    10 ar  
    23     9    24 1   
    24    10    14 1   
    25    11    14 1   
    26    11    15 2   
@<TRIPOS>SUBSTRUCTURE
     1 RGO         1 TEMP              0 ****  ****    0 ROOT
