@<TRIPOS>MOLECULE
RGO
   24    26     1     0     0
SMALL
No Charge or Current Charge


@<TRIPOS>ATOM
      1 C02         -4.8390     5.0480     6.2470 c5         1 RGO       0.104000
      2 C04         -4.3630     6.4560     6.7390 c5         1 RGO      -0.144400
      3 C05         -2.9090     6.1120     7.1820 c5         1 RGO       0.095700
      4 C06         -1.8850     7.3060     6.9490 c5         1 RGO      -0.030100
      5 C07         -0.8650     6.6530     6.0150 ca         1 RGO      -0.135300
      6 C08          0.3470     7.2000     5.5620 ca         1 RGO      -0.070000
      7 C09          1.1310     6.4540     4.6560 ca         1 RGO      -0.129000
      8 C10          0.6940     5.1890     4.2010 ca         1 RGO      -0.086000
      9 C11         -0.5280     4.6550     4.6590 ca         1 RGO      -0.109000
     10 C12         -1.2640     5.4020     5.5900 ca         1 RGO      -0.029000
     11 C14         -3.5810     4.3950     5.6170 c          1 RGO       0.533000
     12 F01         -5.2890     4.2520     7.3020 f          1 RGO      -0.092500
     13 F03         -5.8560     5.1440     5.2980 f          1 RGO      -0.092500
     14 N13         -2.5310     5.1540     6.1390 n          1 RGO      -0.218400
     15 O15         -3.4910     3.5200     4.7630 o          1 RGO      -0.478000
     16 H1          -4.3820     7.1790     5.9140 hc         1 RGO       0.087200
     17 H2          -4.9750     6.8610     7.5530 hc         1 RGO       0.087200
     18 H3          -2.8430     5.6620     8.1830 h1         1 RGO       0.078700
     19 H4          -1.4350     7.6380     7.8920 hc         1 RGO       0.066200
     20 H5          -2.3520     8.1830     6.4860 hc         1 RGO       0.066200
     21 H6           0.6700     8.1830     5.8950 ha         1 RGO       0.117000
     22 H7           2.0720     6.8620     4.2950 ha         1 RGO       0.117000
     23 H8           1.2980     4.6290     3.4900 ha         1 RGO       0.119000
     24 H9          -0.8800     3.6900     4.3030 ha         1 RGO       0.142000
@<TRIPOS>BOND
     1     1     2 1   
     2     1    11 1   
     3     1    12 1   
     4     1    13 1   
     5     2     3 1   
     6     2    16 1   
     7     2    17 1   
     8     3     4 1   
     9     3    14 1   
    10     3    18 1   
    11     4     5 1   
    12     4    19 1   
    13     4    20 1   
    14     5     6 ar  
    15     5    10 ar  
    16     6     7 ar  
    17     6    21 1   
    18     7     8 ar  
    19     7    22 1   
    20     8     9 ar  
    21     8    23 1   
    22     9    10 ar  
    23     9    24 1   
    24    10    14 1   
    25    11    14 1   
    26    11    15 2   
@<TRIPOS>SUBSTRUCTURE
     1 RGO         1 TEMP              0 ****  ****    0 ROOT
