@<TRIPOS>MOLECULE
RGP
   21    20     1     0     0
SMALL
abcg2


@<TRIPOS>ATOM
      1 PA           3.4570    -0.0780     0.0690 p5         1 RGP       1.294900
      2 OA1          3.4660    -1.5130     0.5490 o          1 RGP      -0.912500
      3 OA2          3.6040     0.1400    -1.4210 o          1 RGP      -0.912500
      4 OA3          4.1780     0.9180     0.9550 o          1 RGP      -0.912500
      5 OE2          1.7770     0.4630     0.4130 os         1 RGP      -0.518500
      6 CD           0.7150    -0.0850    -0.1030 c          1 RGP       0.651100
      7 OE1          0.7100    -1.0050    -0.8960 o          1 RGP      -0.574000
      8 CG          -0.5630     0.5650     0.3960 c3         1 RGP      -0.174400
      9 CB          -1.8420    -0.0830    -0.1090 c3         1 RGP      -0.086400
     10 CA          -3.1110     0.5710     0.4630 c3         1 RGP       0.020500
     11 C           -4.3270    -0.2930     0.0630 c          1 RGP       0.726000
     12 O           -5.0270     0.1080    -0.8880 o          1 RGP      -0.760000
     13 OXT         -4.4840    -1.3520     0.7040 o          1 RGP      -0.760000
     14 N           -3.3160     1.9550     0.0680 n8         1 RGP      -1.010200
     15 HG1         -0.5210     1.6250     0.1210 hc         1 RGP       0.025700
     16 HG2         -0.5470     0.5510     1.4910 hc         1 RGP       0.025700
     17 HB1         -1.8390    -1.1410     0.1630 hc         1 RGP       0.047700
     18 HB2         -1.8810    -0.0410    -1.2020 hc         1 RGP       0.047700
     19 HA          -3.0290     0.5420     1.5560 h1         1 RGP       0.033700
     20 HN1         -2.4660     2.4910     0.1960 hn         1 RGP       0.374500
     21 HN2         -3.5320     1.9810    -0.9200 hn         1 RGP       0.374500
@<TRIPOS>BOND
     1     1     2 1   
     2     1     3 1   
     3     1     4 1   
     4     1     5 1   
     5     5     6 1   
     6     6     7 2   
     7     6     8 1   
     8     8     9 1   
     9     8    15 1   
    10     8    16 1   
    11     9    10 1   
    12     9    17 1   
    13     9    18 1   
    14    10    11 1   
    15    10    14 1   
    16    10    19 1   
    17    11    12 1   
    18    11    13 1   
    19    14    20 1   
    20    14    21 1   
@<TRIPOS>SUBSTRUCTURE
     1 RGP         1 TEMP              0 ****  ****    0 ROOT
