@<TRIPOS>MOLECULE
RGP
   21    20     1     0     0
SMALL
No Charge or Current Charge


@<TRIPOS>ATOM
      1 PA           2.9780    -0.6190     0.3020 p5         1 RGP       1.294900
      2 OA1          2.9540    -2.0230    -0.1940 o          1 RGP      -0.912500
      3 OA2          3.7960     0.2380    -0.6020 o          1 RGP      -0.912500
      4 OA3          3.6090    -0.5960     1.6510 o          1 RGP      -0.912500
      5 OE2          1.4810    -0.0760     0.4490 os         1 RGP      -0.518500
      6 CD           0.8080     0.5960    -0.5120 c          1 RGP       0.651100
      7 OE1          1.0910     0.6130    -1.7040 o          1 RGP      -0.574000
      8 CG          -0.5180     1.1570     0.0300 c3         1 RGP      -0.174400
      9 CB          -1.6670     0.1190    -0.0920 c3         1 RGP      -0.086400
     10 CA          -3.0150     0.5680     0.5350 c3         1 RGP       0.020500
     11 C           -4.0250    -0.6570     0.6420 c          1 RGP       0.726000
     12 O           -4.4730    -1.1420    -0.3910 o          1 RGP      -0.760000
     13 OXT         -4.3750    -1.0290     1.7550 o          1 RGP      -0.760000
     14 N           -3.5250     1.8040    -0.1620 n8         1 RGP      -1.010200
     15 HG1         -0.7820     2.0580    -0.5350 hc         1 RGP       0.025700
     16 HG2         -0.4020     1.3950     1.0940 hc         1 RGP       0.025700
     17 HB1         -1.3490    -0.8060     0.4060 hc         1 RGP       0.047700
     18 HB2         -1.8190    -0.1370    -1.1490 hc         1 RGP       0.047700
     19 HA          -2.7950     0.8670     1.5700 h1         1 RGP       0.033700
     20 HN1         -2.7370     2.4450    -0.3100 hn         1 RGP       0.374500
     21 HN2         -3.8140     1.5450    -1.1130 hn         1 RGP       0.374500
@<TRIPOS>BOND
     1     1     2 1   
     2     1     3 1   
     3     1     4 1   
     4     1     5 1   
     5     5     6 1   
     6     6     7 2   
     7     6     8 1   
     8     8     9 1   
     9     8    15 1   
    10     8    16 1   
    11     9    10 1   
    12     9    17 1   
    13     9    18 1   
    14    10    11 1   
    15    10    14 1   
    16    10    19 1   
    17    11    12 1   
    18    11    13 1   
    19    14    20 1   
    20    14    21 1   
@<TRIPOS>SUBSTRUCTURE
     1 RGP         1 TEMP              0 ****  ****    0 ROOT
