@<TRIPOS>MOLECULE
RGQ
   50    53     1     0     0
SMALL
No Charge or Current Charge


@<TRIPOS>ATOM
      1 N1         -21.9230     6.9380    29.1120 n3         1 RGQ      -0.789600
      2 N3         -17.6120     3.6020    24.1570 nb         1 RGQ      -0.647000
      3 C4         -21.8590     4.5530    28.4710 c6         1 RGQ      -0.093400
      4 C5         -20.3980     4.5340    27.9800 c          1 RGQ       0.609100
      5 C6         -19.0530     4.6270    25.8340 ca         1 RGQ      -0.072000
      6 C7         -18.7290     3.6020    24.9200 ca         1 RGQ       0.309900
      7 C8         -16.7700     4.6540    24.2800 ca         1 RGQ       0.358900
      8 C10        -16.1090     6.8200    25.2110 ca         1 RGQ      -0.130000
      9 C13        -18.4500     6.8520    26.7730 ca         1 RGQ      -0.065000
     10 C15        -21.9760     4.1610    29.9490 ca         1 RGQ      -0.056300
     11 C17        -21.9430     2.4640    31.6970 ca         1 RGQ       0.125000
     12 C20        -22.1800     5.1630    30.9240 ca         1 RGQ      -0.059300
     13 C21        -22.3410     6.6350    30.5150 c6         1 RGQ       0.235100
     14 Cl         -21.7930     0.7790    32.1800 cl         1 RGQ      -0.207000
     15 C16        -21.8580     2.8130    30.3400 ca         1 RGQ      -0.091000
     16 C18        -22.1470     3.4560    32.6690 ca         1 RGQ      -0.090000
     17 C19        -22.2670     4.8030    32.2840 ca         1 RGQ      -0.099000
     18 C2         -22.2130     8.3560    28.7070 c3         1 RGQ       0.109800
     19 C1         -21.3800     9.4640    29.4110 c          1 RGQ       0.574100
     20 O          -21.7930    10.5990    29.6170 o          1 RGQ      -0.627100
     21 N          -20.1220     9.0580    29.7930 ns         1 RGQ      -0.492900
     22 C          -19.1360     9.8980    30.4710 c3         1 RGQ       0.096300
     23 C3         -22.4790     5.9350    28.1740 c6         1 RGQ       0.205800
     24 O1         -19.4380     4.5170    28.7450 o          1 RGQ      -0.569100
     25 N2         -20.2410     4.5050    26.6020 ns         1 RGQ      -0.174000
     26 C14        -18.1830     5.7410    25.9390 ca         1 RGQ      -0.019000
     27 C12        -17.5460     7.9280    26.8330 ca         1 RGQ      -0.125000
     28 C11        -16.3780     7.9060    26.0570 ca         1 RGQ       0.171000
     29 F          -15.5120     8.9410    26.1170 f          1 RGQ      -0.176000
     30 C9         -17.0130     5.7410    25.1440 ca         1 RGQ      -0.070000
     31 H2         -22.4200     3.8670    27.8230 hc         1 RGQ       0.065700
     32 H3         -19.3830     2.7380    24.8070 h4         1 RGQ       0.023100
     33 H4         -15.8780     4.6300    23.6550 h4         1 RGQ       0.026100
     34 H5         -15.2050     6.8240    24.6060 ha         1 RGQ       0.138000
     35 H6         -19.3560     6.9040    27.3700 ha         1 RGQ       0.125000
     36 H7         -21.7700     7.2550    31.2210 h1         1 RGQ       0.051700
     37 H8         -23.4000     6.9010    30.6530 h1         1 RGQ       0.051700
     38 H9         -21.6970     2.0380    29.5950 ha         1 RGQ       0.127000
     39 H10        -22.2140     3.1810    33.7190 ha         1 RGQ       0.134000
     40 H11        -22.4300     5.5670    33.0410 ha         1 RGQ       0.121000
     41 H12        -23.2740     8.5910    28.8590 h1         1 RGQ       0.062200
     42 H13        -22.0040     8.4770    27.6360 h1         1 RGQ       0.062200
     43 H14        -19.9190     8.0770    29.6240 hn         1 RGQ       0.358500
     44 H15        -18.2200     9.3190    30.6450 h1         1 RGQ       0.040700
     45 H16        -18.9000    10.7690    29.8460 h1         1 RGQ       0.040700
     46 H17        -19.5390    10.2370    31.4340 h1         1 RGQ       0.040700
     47 H18        -22.2730     6.2170    27.1300 h1         1 RGQ       0.044700
     48 H19        -23.5730     5.8780    28.2810 h1         1 RGQ       0.044700
     49 H20        -21.0960     4.4320    26.0650 hn         1 RGQ       0.157000
     50 H21        -17.7510     8.7800    27.4750 ha         1 RGQ       0.144000
@<TRIPOS>BOND
     1     1    13 1   
     2     1    18 1   
     3     1    23 1   
     4     2     6 ar  
     5     2     7 ar  
     6     3     4 1   
     7     3    10 1   
     8     3    23 1   
     9     3    31 1   
    10     4    24 2   
    11     4    25 1   
    12     5     6 ar  
    13     5    25 1   
    14     5    26 ar  
    15     6    32 1   
    16     7    30 ar  
    17     7    33 1   
    18     8    28 ar  
    19     8    30 ar  
    20     8    34 1   
    21     9    26 ar  
    22     9    27 ar  
    23     9    35 1   
    24    10    12 ar  
    25    10    15 ar  
    26    11    14 1   
    27    11    15 ar  
    28    11    16 ar  
    29    12    13 1   
    30    12    17 ar  
    31    13    36 1   
    32    13    37 1   
    33    15    38 1   
    34    16    17 ar  
    35    16    39 1   
    36    17    40 1   
    37    18    19 1   
    38    18    41 1   
    39    18    42 1   
    40    19    20 2   
    41    19    21 1   
    42    21    22 1   
    43    21    43 1   
    44    22    44 1   
    45    22    45 1   
    46    22    46 1   
    47    23    47 1   
    48    23    48 1   
    49    25    49 1   
    50    26    30 ar  
    51    27    28 ar  
    52    27    50 1   
    53    28    29 1   
@<TRIPOS>SUBSTRUCTURE
     1 RGQ         1 TEMP              0 ****  ****    0 ROOT
