@<TRIPOS>MOLECULE
RGQ
   50    53     1     0     0
SMALL
abcg2


@<TRIPOS>ATOM
      1 N1         -22.1260     6.9770    29.2400 n3         1 RGQ      -0.789600
      2 N3         -17.0240     3.6550    25.1540 nb         1 RGQ      -0.647000
      3 C4         -21.9370     4.6980    28.4550 c6         1 RGQ      -0.093400
      4 C5         -20.4670     4.8420    28.0640 c          1 RGQ       0.609100
      5 C6         -18.9190     4.7270    26.1750 ca         1 RGQ      -0.072000
      6 C7         -18.2530     3.6140    25.7270 ca         1 RGQ       0.309900
      7 C8         -16.4340     4.8220    25.0390 ca         1 RGQ       0.358900
      8 C10        -16.3480     7.2780    25.3040 ca         1 RGQ      -0.130000
      9 C13        -18.9370     7.2180    26.4120 ca         1 RGQ      -0.065000
     10 C15        -22.0760     4.2560    29.8920 ca         1 RGQ      -0.056300
     11 C17        -22.0250     2.4990    31.5310 ca         1 RGQ       0.125000
     12 C20        -22.3570     5.1830    30.8970 ca         1 RGQ      -0.059300
     13 C21        -22.5620     6.6440    30.5820 c6         1 RGQ       0.235100
     14 CL         -21.8110     0.8040    31.9260 cl         1 RGQ      -0.207000
     15 C16        -21.9100     2.9090    30.2150 ca         1 RGQ      -0.091000
     16 C18        -22.3060     3.4050    32.5460 ca         1 RGQ      -0.090000
     17 C19        -22.4720     4.7410    32.2150 ca         1 RGQ      -0.099000
     18 C2         -22.1440     8.3870    28.9380 c3         1 RGQ       0.109800
     19 C1         -20.8490     9.1010    29.3300 c          1 RGQ       0.574100
     20 O          -20.7930    10.3350    29.3630 o          1 RGQ      -0.627100
     21 N          -19.8120     8.2990    29.5880 ns         1 RGQ      -0.492900
     22 C          -18.4920     8.7980    29.9120 c3         1 RGQ       0.096300
     23 C3         -22.6310     6.0550    28.2450 c6         1 RGQ       0.205800
     24 O1         -19.6000     5.2150    28.8460 o          1 RGQ      -0.569100
     25 N2         -20.2070     4.5880    26.7550 ns         1 RGQ      -0.174000
     26 C14        -18.3180     6.0050    26.0340 ca         1 RGQ      -0.019000
     27 C12        -18.2800     8.4100    26.2530 ca         1 RGQ      -0.125000
     28 C11        -16.9860     8.4130    25.7070 ca         1 RGQ       0.171000
     29 F          -16.3650     9.6090    25.5760 f          1 RGQ      -0.176000
     30 C9         -17.0180     6.0430    25.4580 ca         1 RGQ      -0.070000
     31 H2         -22.4060     3.9590    27.8020 hc         1 RGQ       0.065700
     32 H3         -18.7110     2.6370    25.8280 h4         1 RGQ       0.023100
     33 H4         -15.4440     4.8400    24.5940 h4         1 RGQ       0.026100
     34 H5         -15.3560     7.3190    24.8740 ha         1 RGQ       0.138000
     35 H6         -19.9310     7.2070    26.8280 ha         1 RGQ       0.125000
     36 H7         -21.9980     7.2470    31.2970 h1         1 RGQ       0.051700
     37 H8         -23.6280     6.8960    30.7270 h1         1 RGQ       0.051700
     38 H9         -21.6910     2.1890    29.4360 ha         1 RGQ       0.127000
     39 H10        -22.3920     3.0720    33.5710 ha         1 RGQ       0.134000
     40 H11        -22.6900     5.4570    32.9990 ha         1 RGQ       0.121000
     41 H12        -22.9740     8.9240    29.4160 h1         1 RGQ       0.062200
     42 H13        -22.2570     8.5280    27.8600 h1         1 RGQ       0.062200
     43 H14        -19.9680     7.3020    29.4850 hn         1 RGQ       0.358500
     44 H15        -17.8350     7.9480    30.0810 h1         1 RGQ       0.040700
     45 H16        -18.0870     9.4010    29.0970 h1         1 RGQ       0.040700
     46 H17        -18.5170     9.4130    30.8140 h1         1 RGQ       0.040700
     47 H18        -22.4100     6.4390    27.2510 h1         1 RGQ       0.044700
     48 H19        -23.7210     5.9100    28.3140 h1         1 RGQ       0.044700
     49 H20        -20.9300     4.1630    26.1940 hn         1 RGQ       0.157000
     50 H21        -18.7370     9.3480    26.5410 ha         1 RGQ       0.144000
@<TRIPOS>BOND
     1     1    13 1   
     2     1    18 1   
     3     1    23 1   
     4     2     6 ar  
     5     2     7 ar  
     6     3     4 1   
     7     3    10 1   
     8     3    23 1   
     9     3    31 1   
    10     4    24 2   
    11     4    25 1   
    12     5     6 ar  
    13     5    25 1   
    14     5    26 ar  
    15     6    32 1   
    16     7    30 ar  
    17     7    33 1   
    18     8    28 ar  
    19     8    30 ar  
    20     8    34 1   
    21     9    26 ar  
    22     9    27 ar  
    23     9    35 1   
    24    10    12 ar  
    25    10    15 ar  
    26    11    14 1   
    27    11    15 ar  
    28    11    16 ar  
    29    12    13 1   
    30    12    17 ar  
    31    13    36 1   
    32    13    37 1   
    33    15    38 1   
    34    16    17 ar  
    35    16    39 1   
    36    17    40 1   
    37    18    19 1   
    38    18    41 1   
    39    18    42 1   
    40    19    20 2   
    41    19    21 1   
    42    21    22 1   
    43    21    43 1   
    44    22    44 1   
    45    22    45 1   
    46    22    46 1   
    47    23    47 1   
    48    23    48 1   
    49    25    49 1   
    50    26    30 ar  
    51    27    28 ar  
    52    27    50 1   
    53    28    29 1   
@<TRIPOS>SUBSTRUCTURE
     1 RGQ         1 TEMP              0 ****  ****    0 ROOT
