@<TRIPOS>MOLECULE
RGS
   68    67     1     0     0
SMALL
abcg2


@<TRIPOS>ATOM
      1 C1          -0.7020    -0.1480    -0.5880 c          1 RGS       0.706500
      2 O1A         -1.2420     0.4080     0.3740 o          1 RGS      -0.736750
      3 O1B          0.5110    -0.5070    -0.6420 o          1 RGS      -0.736750
      4 C2          -1.5450    -0.4460    -1.8450 c3         1 RGS       0.018500
      5 N2          -2.9640    -0.5130    -1.5210 n8         1 RGS      -0.997200
      6 C3          -1.3410     0.6090    -2.9360 c3         1 RGS      -0.078900
      7 C4           0.1100     0.8850    -3.3150 c3         1 RGS       0.114000
      8 N4           0.9390    -0.2880    -3.5080 ns         1 RGS      -0.496900
      9 C            1.1010    -0.9100    -4.6770 c          1 RGS       0.593600
     10 O            0.4880    -0.6070    -5.6920 o          1 RGS      -0.666100
     11 CA           2.2090    -1.9770    -4.7140 c3         1 RGS       0.052700
     12 N            2.2190    -2.5680    -6.0230 ns         1 RGS      -0.494400
     13 C5           3.3070    -3.1620    -6.5540 c          1 RGS       0.633100
     14 O5           4.3530    -3.2800    -5.9300 o          1 RGS      -0.641600
     15 C6           3.1310    -3.6610    -7.9600 c3         1 RGS      -0.302400
     16 C7           2.6760    -5.1440    -8.0090 c          1 RGS       0.727000
     17 O7A          2.5300    -5.7260    -6.9220 o          1 RGS      -0.726250
     18 O7B          2.5010    -5.6070    -9.1510 o          1 RGS      -0.726250
     19 CB           2.1410    -3.0300    -3.6080 c3         1 RGS       0.022600
     20 SG           0.7510    -4.1700    -3.9150 ss         1 RGS      -0.209500
     21 S1           0.5060    -5.0150    -2.0570 ss         1 RGS      -0.209500
     22 C17         -0.4340    -3.6860    -1.2400 c3         1 RGS       0.022600
     23 C13         -0.4400    -3.8030     0.2850 c3         1 RGS       0.052700
     24 N5          -1.2020    -4.9200     0.7610 ns         1 RGS      -0.494400
     25 C14         -2.5480    -4.9190     0.7750 c          1 RGS       0.633100
     26 O3          -3.2040    -3.9250     0.4810 o          1 RGS      -0.641600
     27 C15         -3.1840    -6.2200     1.1720 c3         1 RGS      -0.302400
     28 C16         -3.5100    -7.0910    -0.0710 c          1 RGS       0.727000
     29 O11         -3.1020    -6.6740    -1.1680 o          1 RGS      -0.726250
     30 O12         -4.1430    -8.1370     0.1590 o          1 RGS      -0.726250
     31 C12          0.9920    -3.8880     0.8110 c          1 RGS       0.593600
     32 O2           1.4390    -4.9440     1.2450 o          1 RGS      -0.666100
     33 N3           1.6810    -2.7500     0.7220 ns         1 RGS      -0.496900
     34 C11          3.1160    -2.6960     0.9230 c3         1 RGS       0.114000
     35 C10          3.8750    -3.0070    -0.3610 c3         1 RGS      -0.078900
     36 C9           5.3770    -3.1700    -0.1630 c3         1 RGS       0.018500
     37 N1           5.9340    -1.9560     0.4170 n8         1 RGS      -0.997200
     38 C8           6.0520    -3.6600    -1.4740 c          1 RGS       0.706500
     39 O13          7.0750    -3.0550    -1.8520 o          1 RGS      -0.736750
     40 O14          5.5270    -4.6490    -2.0250 o          1 RGS      -0.736750
     41 H2          -1.1840    -1.3900    -2.2660 h1         1 RGS       0.031200
     42 HN21        -3.1190    -1.2440    -0.8370 hn         1 RGS       0.376000
     43 HN22        -3.4690    -0.8100    -2.3490 hn         1 RGS       0.376000
     44 H31         -1.8900     0.2840    -3.8250 hc         1 RGS       0.040700
     45 H32         -1.7900     1.5540    -2.6180 hc         1 RGS       0.040700
     46 H41          0.1370     1.4860    -4.2240 h1         1 RGS       0.030700
     47 H42          0.5920     1.4770    -2.5380 h1         1 RGS       0.030700
     48 HN4          1.3430    -0.6530    -2.6580 hn         1 RGS       0.370000
     49 HA           3.1500    -1.4340    -4.5580 h1         1 RGS       0.079700
     50 HN           1.4150    -2.4020    -6.6080 hn         1 RGS       0.328000
     51 H61          2.4100    -3.0510    -8.5110 hc         1 RGS       0.026450
     52 H62          4.0830    -3.5680    -8.4870 hc         1 RGS       0.026450
     53 HB1          3.0740    -3.5910    -3.5710 h1         1 RGS       0.093450
     54 HB2          2.0100    -2.5710    -2.6280 h1         1 RGS       0.093450
     55 HB'1        -1.4570    -3.6850    -1.6120 h1         1 RGS       0.093450
     56 HB'2         0.0380    -2.7470    -1.5120 h1         1 RGS       0.093450
     57 H7          -0.9020    -2.8830     0.6560 h1         1 RGS       0.079700
     58 H8          -0.6980    -5.7620     0.9900 hn         1 RGS       0.328000
     59 H6'1        -2.5380    -6.7930     1.8430 hc         1 RGS       0.026450
     60 H6'2        -4.1050    -6.0150     1.7220 hc         1 RGS       0.026450
     61 H5           1.2370    -1.9270     0.3040 hn         1 RGS       0.370000
     62 H4'1         3.3910    -3.4070     1.7040 h1         1 RGS       0.030700
     63 H4'2         3.3670    -1.7040     1.2940 h1         1 RGS       0.030700
     64 H3'1         3.6940    -2.2070    -1.0880 hc         1 RGS       0.040700
     65 H3'2         3.4750    -3.9180    -0.8050 hc         1 RGS       0.040700
     66 H1           5.5200    -3.9750     0.5730 h1         1 RGS       0.031200
     67 H2'1         5.7500    -1.1870    -0.2200 hn         1 RGS       0.376000
     68 H2'2         6.9430    -2.0400     0.4160 hn         1 RGS       0.376000
@<TRIPOS>BOND
     1     1     2 1   
     2     1     3 1   
     3     1     4 1   
     4     4     5 1   
     5     4     6 1   
     6     4    41 1   
     7     5    42 1   
     8     5    43 1   
     9     6     7 1   
    10     6    44 1   
    11     6    45 1   
    12     7     8 1   
    13     7    46 1   
    14     7    47 1   
    15     8     9 1   
    16     8    48 1   
    17     9    10 2   
    18     9    11 1   
    19    11    12 1   
    20    11    19 1   
    21    11    49 1   
    22    12    13 1   
    23    12    50 1   
    24    13    14 2   
    25    13    15 1   
    26    15    16 1   
    27    15    51 1   
    28    15    52 1   
    29    16    17 1   
    30    16    18 1   
    31    19    20 1   
    32    19    53 1   
    33    19    54 1   
    34    20    21 1   
    35    21    22 1   
    36    22    23 1   
    37    22    55 1   
    38    22    56 1   
    39    23    24 1   
    40    23    31 1   
    41    23    57 1   
    42    24    25 1   
    43    24    58 1   
    44    25    26 2   
    45    25    27 1   
    46    27    28 1   
    47    27    59 1   
    48    27    60 1   
    49    28    29 1   
    50    28    30 1   
    51    31    32 2   
    52    31    33 1   
    53    33    34 1   
    54    33    61 1   
    55    34    35 1   
    56    34    62 1   
    57    34    63 1   
    58    35    36 1   
    59    35    64 1   
    60    35    65 1   
    61    36    37 1   
    62    36    38 1   
    63    36    66 1   
    64    37    67 1   
    65    37    68 1   
    66    38    39 1   
    67    38    40 1   
@<TRIPOS>SUBSTRUCTURE
     1 RGS         1 TEMP              0 ****  ****    0 ROOT
