@<TRIPOS>MOLECULE
RGS
   68    67     1     0     0
SMALL
No Charge or Current Charge


@<TRIPOS>ATOM
      1 C1          -0.4580     0.3530    -0.5950 c          1 RGS       0.706500
      2 O1A         -0.4660     1.4890    -0.1360 o          1 RGS      -0.736750
      3 O1B          0.0990    -0.5860    -0.0420 o          1 RGS      -0.736750
      4 C2          -1.2440     0.0550    -1.9440 c3         1 RGS       0.018500
      5 N2          -2.7410    -0.0890    -1.8250 n8         1 RGS      -0.997200
      6 C3          -0.9100     1.0700    -3.0710 c3         1 RGS      -0.078900
      7 C4           0.6000     1.2630    -3.3510 c3         1 RGS       0.114000
      8 N4           1.3200     0.0220    -3.6580 ns         1 RGS      -0.496900
      9 C            1.1910    -0.7030    -4.8270 c          1 RGS       0.593600
     10 O            0.4160    -0.3610    -5.7140 o          1 RGS      -0.666100
     11 CA           2.1220    -1.9490    -4.9510 c3         1 RGS       0.052700
     12 N            2.0220    -2.5370    -6.3080 ns         1 RGS      -0.494400
     13 C5           2.9140    -3.4250    -6.8610 c          1 RGS       0.633100
     14 O5           3.9010    -3.8160    -6.2550 o          1 RGS      -0.641600
     15 C6           2.6110    -3.8380    -8.2850 c3         1 RGS      -0.302400
     16 C7           1.9000    -5.1690    -8.1720 c          1 RGS       0.727000
     17 O7A          0.6860    -5.1570    -8.0480 o          1 RGS      -0.726250
     18 O7B          2.5730    -6.1880    -8.1830 o          1 RGS      -0.726250
     19 CB           1.8690    -2.9970    -3.8360 c3         1 RGS       0.022600
     20 SG           0.2030    -3.7890    -3.9770 ss         1 RGS      -0.209500
     21 S1           0.0660    -4.9150    -2.2180 ss         1 RGS      -0.209500
     22 C17         -0.7610    -3.7490    -1.0500 c3         1 RGS       0.022600
     23 C13         -0.5550    -4.1420     0.4330 c3         1 RGS       0.052700
     24 N5          -1.1500    -5.4610     0.7480 ns         1 RGS      -0.494400
     25 C14         -2.4960    -5.7290     0.8200 c          1 RGS       0.633100
     26 O3          -3.3400    -4.8660     0.6280 o          1 RGS      -0.641600
     27 C15         -2.8500    -7.1510     1.2000 c3         1 RGS      -0.302400
     28 C16         -3.1440    -7.8520    -0.1080 c          1 RGS       0.727000
     29 O11         -2.2110    -8.3700    -0.6990 o          1 RGS      -0.726250
     30 O12         -4.2910    -7.8420    -0.5250 o          1 RGS      -0.726250
     31 C12          0.9490    -4.1060     0.8360 c          1 RGS       0.593600
     32 O2           1.5610    -5.1000     1.2140 o          1 RGS      -0.666100
     33 N3           1.5580    -2.8700     0.7620 ns         1 RGS      -0.496900
     34 C11          2.9640    -2.6090     1.0720 c3         1 RGS       0.114000
     35 C10          3.9060    -2.9930    -0.0910 c3         1 RGS      -0.078900
     36 C9           5.4130    -2.8280     0.2400 c3         1 RGS       0.018500
     37 N1           5.7410    -1.3840     0.5270 n8         1 RGS      -0.997200
     38 C8           6.3040    -3.5420    -0.8600 c          1 RGS       0.706500
     39 O13          6.4890    -2.9650    -1.9240 o          1 RGS      -0.736750
     40 O14          6.8760    -4.5810    -0.5590 o          1 RGS      -0.736750
     41 H2          -0.8780    -0.9200    -2.2920 h1         1 RGS       0.031200
     42 HN21        -2.9590    -0.8540    -1.1760 hn         1 RGS       0.376000
     43 HN22        -3.1250    -0.4070    -2.7220 hn         1 RGS       0.376000
     44 H31         -1.4030     0.7530    -3.9970 hc         1 RGS       0.040700
     45 H32         -1.3370     2.0470    -2.8140 hc         1 RGS       0.040700
     46 H41          0.7230     1.9550    -4.1950 h1         1 RGS       0.030700
     47 H42          1.0770     1.7260    -2.4780 h1         1 RGS       0.030700
     48 HN4          2.0110    -0.3010    -2.9910 hn         1 RGS       0.370000
     49 HA           3.1450    -1.5710    -4.8270 h1         1 RGS       0.079700
     50 HN           1.2390    -2.2600    -6.8890 hn         1 RGS       0.328000
     51 H61          1.9260    -3.0910    -8.7050 hc         1 RGS       0.026450
     52 H62          3.5760    -3.9590    -8.7920 hc         1 RGS       0.026450
     53 HB1          2.6310    -3.7840    -3.8890 h1         1 RGS       0.093450
     54 HB2          1.9510    -2.5250    -2.8490 h1         1 RGS       0.093450
     55 HB'1        -1.8310    -3.7040    -1.2870 h1         1 RGS       0.093450
     56 HB'2        -0.3410    -2.7540    -1.2210 h1         1 RGS       0.093450
     57 H7          -1.0560    -3.3880     1.0540 h1         1 RGS       0.079700
     58 H8          -0.5210    -6.2350     0.9320 hn         1 RGS       0.328000
     59 H6'1        -1.9610    -7.5980     1.6640 hc         1 RGS       0.026450
     60 H6'2        -3.7530    -7.0980     1.8210 hc         1 RGS       0.026450
     61 H5           0.9780    -2.0770     0.4750 hn         1 RGS       0.370000
     62 H4'1         3.2390    -3.1730     1.9730 h1         1 RGS       0.030700
     63 H4'2         3.0690    -1.5400     1.2980 h1         1 RGS       0.030700
     64 H3'1         3.6550    -2.3990    -0.9780 hc         1 RGS       0.040700
     65 H3'2         3.7240    -4.0420    -0.3550 hc         1 RGS       0.040700
     66 H1           5.5930    -3.3750     1.1760 h1         1 RGS       0.031200
     67 H2'1         5.7230    -0.8700    -0.3620 hn         1 RGS       0.376000
     68 H2'2         6.7250    -1.3170     0.8140 hn         1 RGS       0.376000
@<TRIPOS>BOND
     1     1     2 1   
     2     1     3 1   
     3     1     4 1   
     4     4     5 1   
     5     4     6 1   
     6     4    41 1   
     7     5    42 1   
     8     5    43 1   
     9     6     7 1   
    10     6    44 1   
    11     6    45 1   
    12     7     8 1   
    13     7    46 1   
    14     7    47 1   
    15     8     9 1   
    16     8    48 1   
    17     9    10 2   
    18     9    11 1   
    19    11    12 1   
    20    11    19 1   
    21    11    49 1   
    22    12    13 1   
    23    12    50 1   
    24    13    14 2   
    25    13    15 1   
    26    15    16 1   
    27    15    51 1   
    28    15    52 1   
    29    16    17 1   
    30    16    18 1   
    31    19    20 1   
    32    19    53 1   
    33    19    54 1   
    34    20    21 1   
    35    21    22 1   
    36    22    23 1   
    37    22    55 1   
    38    22    56 1   
    39    23    24 1   
    40    23    31 1   
    41    23    57 1   
    42    24    25 1   
    43    24    58 1   
    44    25    26 2   
    45    25    27 1   
    46    27    28 1   
    47    27    59 1   
    48    27    60 1   
    49    28    29 1   
    50    28    30 1   
    51    31    32 2   
    52    31    33 1   
    53    33    34 1   
    54    33    61 1   
    55    34    35 1   
    56    34    62 1   
    57    34    63 1   
    58    35    36 1   
    59    35    64 1   
    60    35    65 1   
    61    36    37 1   
    62    36    38 1   
    63    36    66 1   
    64    37    67 1   
    65    37    68 1   
    66    38    39 1   
    67    38    40 1   
@<TRIPOS>SUBSTRUCTURE
     1 RGS         1 TEMP              0 ****  ****    0 ROOT
