@<TRIPOS>MOLECULE
RGU
   24    26     1     0     0
SMALL
No Charge or Current Charge


@<TRIPOS>ATOM
      1 C02         25.9010    66.8390    71.9750 c          1 RGU       0.569000
      2 C03         24.7680    66.0450    71.3100 c5         1 RGU      -0.163400
      3 C04         25.3620    64.6040    71.2270 c5         1 RGU      -0.085400
      4 C05         26.8020    64.9680    70.7440 c5         1 RGU       0.088700
      5 C06         27.8960    63.9410    71.2700 c5         1 RGU      -0.029100
      6 C07         28.8140    64.8630    72.0700 ca         1 RGU      -0.139300
      7 C08         30.0340    64.5280    72.6790 ca         1 RGU      -0.072000
      8 C09         30.7170    65.5150    73.4200 ca         1 RGU      -0.136000
      9 C10         30.1710    66.8120    73.5590 ca         1 RGU      -0.087000
     10 C11         28.9420    67.1320    72.9490 ca         1 RGU      -0.115000
     11 C12         28.3060    66.1410    72.1870 ca         1 RGU      -0.024000
     12 N13         27.0570    66.1750    71.5450 n          1 RGU      -0.227400
     13 O01         25.8470    67.6240    72.9130 o          1 RGU      -0.532000
     14 H1          24.6390    66.4210    70.2880 hc         1 RGU       0.079200
     15 H2          23.8290    66.1340    71.8660 hc         1 RGU       0.079200
     16 H3          24.8280    63.9530    70.5250 hc         1 RGU       0.060200
     17 H4          25.3580    64.1200    72.2110 hc         1 RGU       0.060200
     18 H5          26.8720    65.1760    69.6680 h1         1 RGU       0.065700
     19 H6          27.4710    63.1500    71.8990 hc         1 RGU       0.061700
     20 H7          28.4180    63.4520    70.4400 hc         1 RGU       0.061700
     21 H8          30.4420    63.5230    72.5880 ha         1 RGU       0.114000
     22 H9          31.6630    65.2730    73.8980 ha         1 RGU       0.114000
     23 H10         30.6970    67.5620    74.1460 ha         1 RGU       0.116000
     24 H11         28.5070    68.1220    73.0600 ha         1 RGU       0.141000
@<TRIPOS>BOND
     1     1     2 1   
     2     1    12 1   
     3     1    13 2   
     4     2     3 1   
     5     2    14 1   
     6     2    15 1   
     7     3     4 1   
     8     3    16 1   
     9     3    17 1   
    10     4     5 1   
    11     4    12 1   
    12     4    18 1   
    13     5     6 1   
    14     5    19 1   
    15     5    20 1   
    16     6     7 ar  
    17     6    11 ar  
    18     7     8 ar  
    19     7    21 1   
    20     8     9 ar  
    21     8    22 1   
    22     9    10 ar  
    23     9    23 1   
    24    10    11 ar  
    25    10    24 1   
    26    11    12 1   
@<TRIPOS>SUBSTRUCTURE
     1 RGU         1 TEMP              0 ****  ****    0 ROOT
