@<TRIPOS>MOLECULE
RGU
   24    26     1     0     0
SMALL
abcg2


@<TRIPOS>ATOM
      1 C02         25.8730    66.7720    72.0230 c          1 RGU       0.569000
      2 C03         24.7410    66.0360    71.3150 c5         1 RGU      -0.163400
      3 C04         25.3170    64.6360    71.0390 c5         1 RGU      -0.085400
      4 C05         26.8160    64.9060    70.8820 c5         1 RGU       0.088700
      5 C06         27.8660    63.9120    71.4120 c5         1 RGU      -0.029100
      6 C07         28.8480    64.8170    72.1290 ca         1 RGU      -0.139300
      7 C08         30.1070    64.5500    72.6360 ca         1 RGU      -0.072000
      8 C09         30.7890    65.5540    73.3300 ca         1 RGU      -0.136000
      9 C10         30.2090    66.8060    73.5150 ca         1 RGU      -0.087000
     10 C11         28.9410    67.0930    73.0060 ca         1 RGU      -0.115000
     11 C12         28.2830    66.0860    72.3160 ca         1 RGU      -0.024000
     12 N13         27.0160    66.1080    71.7190 n          1 RGU      -0.227400
     13 O01         25.7840    67.7650    72.7360 o          1 RGU      -0.532000
     14 H1          24.5110    66.5680    70.3870 hc         1 RGU       0.079200
     15 H2          23.8450    66.0390    71.9320 hc         1 RGU       0.079200
     16 H3          24.8860    64.1590    70.1600 hc         1 RGU       0.060200
     17 H4          25.1510    63.9880    71.9020 hc         1 RGU       0.060200
     18 H5          27.0500    65.1700    69.8460 h1         1 RGU       0.065700
     19 H6          27.4190    63.2060    72.1190 hc         1 RGU       0.061700
     20 H7          28.3240    63.3360    70.6090 hc         1 RGU       0.061700
     21 H8          30.5570    63.5740    72.5040 ha         1 RGU       0.114000
     22 H9          31.7770    65.3560    73.7260 ha         1 RGU       0.114000
     23 H10         30.7480    67.5730    74.0550 ha         1 RGU       0.116000
     24 H11         28.4870    68.0640    73.1410 ha         1 RGU       0.141000
@<TRIPOS>BOND
     1     1     2 1   
     2     1    12 1   
     3     1    13 2   
     4     2     3 1   
     5     2    14 1   
     6     2    15 1   
     7     3     4 1   
     8     3    16 1   
     9     3    17 1   
    10     4     5 1   
    11     4    12 1   
    12     4    18 1   
    13     5     6 1   
    14     5    19 1   
    15     5    20 1   
    16     6     7 ar  
    17     6    11 ar  
    18     7     8 ar  
    19     7    21 1   
    20     8     9 ar  
    21     8    22 1   
    22     9    10 ar  
    23     9    23 1   
    24    10    11 ar  
    25    10    24 1   
    26    11    12 1   
@<TRIPOS>SUBSTRUCTURE
     1 RGU         1 TEMP              0 ****  ****    0 ROOT
