@<TRIPOS>MOLECULE
RGV
   33    36     1     0     0
SMALL
abcg2


@<TRIPOS>ATOM
      1 C10          0.5970    -1.1270     0.4390 c          1 RGV       0.601700
      2 C13          3.1490    -1.1750     0.7740 cc         1 RGV      -0.104000
      3 C15          3.5840     0.8440    -0.0960 cc         1 RGV      -0.188000
      4 C01          0.4860    -0.1080    -2.4230 c3         1 RGV       0.158100
      5 C03          1.0970     1.5080    -0.6630 c5         1 RGV       0.249800
      6 C04          0.3210     2.1160     0.5190 c5         1 RGV      -0.061400
      7 C05         -0.6580     1.0040     0.9220 c5         1 RGV      -0.069700
      8 C06         -2.1330     1.3510     0.7370 c5         1 RGV       0.112000
      9 C08         -1.8100    -0.7490    -0.3810 c5         1 RGV       0.115000
     10 C09         -0.4340    -0.1320    -0.1210 c5         1 RGV       0.072200
     11 C12          1.9470    -0.6110     0.3850 cd         1 RGV      -0.267600
     12 C16          2.2330     0.6720    -0.1650 cd         1 RGV      -0.150300
     13 N02          0.0810     0.6370    -1.2520 n3         1 RGV      -0.710600
     14 N07         -2.7330     0.0900     0.3630 n          1 RGV      -0.419800
     15 N14          4.1130    -0.2860     0.4790 na         1 RGV      -0.105000
     16 O11          0.2890    -2.2080     0.9070 o          1 RGV      -0.524100
     17 O18         -4.4740    -1.3610     0.3850 o          1 RGV      -0.604100
     18 H1           3.3750    -2.1270     1.2250 h4         1 RGV       0.163000
     19 H2           4.2170     1.6610    -0.4010 h4         1 RGV       0.152000
     20 H3          -4.4830     0.4440     1.3280 h5         1 RGV       0.005200
     21 H4          -0.3630    -0.6590    -2.8270 h1         1 RGV       0.037367
     22 H5           0.8100     0.5910    -3.1950 h1         1 RGV       0.037367
     23 H6           1.3020    -0.8220    -2.2550 h1         1 RGV       0.037367
     24 H7           1.4230     2.2640    -1.3800 h1         1 RGV       0.077700
     25 H8           0.9810     2.4130     1.3320 hc         1 RGV       0.054700
     26 H9          -0.2180     3.0070     0.1930 hc         1 RGV       0.054700
     27 H10         -0.4910     0.6490     1.9410 hc         1 RGV       0.072700
     28 H11         -2.5920     1.7500     1.6410 h1         1 RGV       0.050700
     29 H12         -2.2540     2.0900    -0.0600 h1         1 RGV       0.050700
     30 H13         -2.0460    -0.7440    -1.4470 h1         1 RGV       0.073700
     31 H14         -1.8800    -1.7780    -0.0330 h1         1 RGV       0.073700
     32 H16          5.0950    -0.4340     0.6470 hn         1 RGV       0.350000
     33 C17         -3.9620    -0.3000     0.7060 c          1 RGV       0.606900
@<TRIPOS>BOND
     1     1    10 1   
     2     1    11 1   
     3     1    16 2   
     4     2    11 2   
     5     2    15 1   
     6     2    18 1   
     7     3    12 2   
     8     3    15 1   
     9     3    19 1   
    10     4    13 1   
    11     4    21 1   
    12     4    22 1   
    13     4    23 1   
    14     5     6 1   
    15     5    12 1   
    16     5    13 1   
    17     5    24 1   
    18     6     7 1   
    19     6    25 1   
    20     6    26 1   
    21     7     8 1   
    22     7    10 1   
    23     7    27 1   
    24     8    14 1   
    25     8    28 1   
    26     8    29 1   
    27     9    10 1   
    28     9    14 1   
    29     9    30 1   
    30     9    31 1   
    31    10    13 1   
    32    11    12 1   
    33    14    33 1   
    34    15    32 1   
    35    17    33 2   
    36    20    33 1   
@<TRIPOS>SUBSTRUCTURE
     1 RGV         1 TEMP              0 ****  ****    0 ROOT
