@<TRIPOS>MOLECULE
RGV
   33    36     1     0     0
SMALL
No Charge or Current Charge


@<TRIPOS>ATOM
      1 C10          0.7280    -1.2950     0.6020 c          1 RGV       0.601700
      2 C13          3.3010    -1.1670     0.6490 cc         1 RGV      -0.104000
      3 C15          3.4960     0.9510    -0.2710 cc         1 RGV      -0.188000
      4 C01          0.3180    -0.0950    -2.3840 c3         1 RGV       0.158100
      5 C03          1.0440     1.5280    -0.5790 c5         1 RGV       0.249800
      6 C04          0.3610     2.0380     0.7310 c5         1 RGV      -0.061400
      7 C05         -0.6320     0.8730     1.1310 c5         1 RGV      -0.069700
      8 C06         -2.0850     1.3470     0.7950 c5         1 RGV       0.112000
      9 C08         -1.7620    -0.9460    -0.0890 c5         1 RGV       0.115000
     10 C09         -0.3690    -0.2540     0.0850 c5         1 RGV       0.072200
     11 C12          2.0540    -0.6630     0.3920 cd         1 RGV      -0.267600
     12 C16          2.1800     0.6060    -0.1640 cd         1 RGV      -0.150300
     13 N02         -0.0100     0.6060    -1.1190 n3         1 RGV      -0.710600
     14 N07         -2.7180     0.1130     0.3030 n          1 RGV      -0.419800
     15 N14          4.1900    -0.1600     0.2370 na         1 RGV      -0.105000
     16 O11          0.5590    -2.4280     1.0410 o          1 RGV      -0.524100
     17 O18         -4.6260    -1.0070    -0.3420 o          1 RGV      -0.604100
     18 H1           3.6230    -2.1140     1.0670 h4         1 RGV       0.163000
     19 H2           3.9820     1.8460    -0.6430 h4         1 RGV       0.152000
     20 H3          -4.6540     0.9150     0.4070 h5         1 RGV       0.005200
     21 H4          -0.5420    -0.6720    -2.7460 h1         1 RGV       0.037367
     22 H5           0.5880     0.6290    -3.1630 h1         1 RGV       0.037367
     23 H6           1.1620    -0.7860    -2.2550 h1         1 RGV       0.037367
     24 H7           1.3720     2.3210    -1.2670 h1         1 RGV       0.077700
     25 H8           1.1000     2.2290     1.5170 hc         1 RGV       0.054700
     26 H9          -0.1510     2.9920     0.5610 hc         1 RGV       0.054700
     27 H10         -0.5320     0.5310     2.1680 hc         1 RGV       0.072700
     28 H11         -2.5960     1.7520     1.6790 h1         1 RGV       0.050700
     29 H12         -2.1100     2.1100     0.0050 h1         1 RGV       0.050700
     30 H13         -1.9310    -1.2990    -1.1140 h1         1 RGV       0.073700
     31 H14         -1.8750    -1.8070     0.5830 h1         1 RGV       0.073700
     32 H16          5.2020    -0.2290     0.2980 hn         1 RGV       0.350000
     33 C17         -4.1000     0.0050     0.1090 c          1 RGV       0.606900
@<TRIPOS>BOND
     1     1    10 1   
     2     1    11 1   
     3     1    16 2   
     4     2    11 2   
     5     2    15 1   
     6     2    18 1   
     7     3    12 2   
     8     3    15 1   
     9     3    19 1   
    10     4    13 1   
    11     4    21 1   
    12     4    22 1   
    13     4    23 1   
    14     5     6 1   
    15     5    12 1   
    16     5    13 1   
    17     5    24 1   
    18     6     7 1   
    19     6    25 1   
    20     6    26 1   
    21     7     8 1   
    22     7    10 1   
    23     7    27 1   
    24     8    14 1   
    25     8    28 1   
    26     8    29 1   
    27     9    10 1   
    28     9    14 1   
    29     9    30 1   
    30     9    31 1   
    31    10    13 1   
    32    11    12 1   
    33    14    33 1   
    34    15    32 1   
    35    17    33 2   
    36    20    33 1   
@<TRIPOS>SUBSTRUCTURE
     1 RGV         1 TEMP              0 ****  ****    0 ROOT
