@<TRIPOS>MOLECULE
RGW
   74    80     1     0     0
SMALL
No Charge or Current Charge


@<TRIPOS>ATOM
      1 C4          29.1460    15.9300    -3.9920 ca         1 RGW      -0.087300
      2 C14         31.1950    12.8690    -6.2100 c6         1 RGW      -0.062067
      3 C5          29.6900    15.2120    -2.7630 c3         1 RGW       0.301100
      4 C6          31.8630    14.8930    -1.5840 c3         1 RGW       0.168200
      5 C11         32.8640    11.6420    -7.6770 c6         1 RGW      -0.062067
      6 C7          33.2920    14.4350    -1.9620 c3         1 RGW      -0.168400
      7 C8          33.2510    13.2300    -2.9620 c          1 RGW       0.590100
      8 C10         32.7070    12.7700    -6.6040 c6         1 RGW      -0.067000
      9 C12         31.9970    11.9520    -8.9320 c6         1 RGW      -0.058367
     10 C13         32.4490    13.3050    -9.5510 c6         1 RGW      -0.068733
     11 N1          31.1500    15.3460    -2.7990 n7         1 RGW      -0.893400
     12 N2          33.5680    13.4520    -4.3140 ns         1 RGW      -0.500900
     13 C3          29.2330    17.3320    -4.0710 ca         1 RGW      -0.082000
     14 N3          32.9230    16.5170     0.0330 nc         1 RGW      -0.363000
     15 C1          28.1530    17.2940    -6.2490 ca         1 RGW       0.124000
     16 C2          28.7400    18.0140    -5.1970 ca         1 RGW      -0.109500
     17 C15         30.3260    13.1810    -7.4640 c6         1 RGW      -0.058367
     18 C16         30.5030    12.0470    -8.5130 c6         1 RGW      -0.068733
     19 C17         30.7800    14.5350    -8.0820 c6         1 RGW      -0.068733
     20 C18         32.2750    14.4410    -8.5030 c6         1 RGW      -0.058367
     21 C19         33.1430    14.1290    -7.2500 c6         1 RGW      -0.062067
     22 O1          32.9670    12.1110    -2.5620 o          1 RGW      -0.612100
     23 C20         31.8390    16.0080    -0.5500 cd         1 RGW       0.413800
     24 N4          32.5180    17.5640     0.8360 nc         1 RGW      -0.356000
     25 C21         31.2010    17.6650     0.7260 cd         1 RGW       0.400800
     26 C22         30.4340    18.7800     1.3880 c3         1 RGW      -0.127400
     27 N5          30.7220    16.7040    -0.1470 na         1 RGW      -0.237800
     28 C23         29.3760    16.3540    -0.3670 cc         1 RGW      -0.114200
     29 C24         28.9560    15.6220    -1.4740 cd         1 RGW      -0.097300
     30 C25         27.5580    15.2800    -1.3010 cd         1 RGW      -0.082300
     31 C26         26.7560    14.4860    -2.3140 c3         1 RGW      -0.032800
     32 C27         26.9980    15.7500    -0.1270 cc         1 RGW      -0.198300
     33 C28         25.5780    15.5910     0.3550 c3         1 RGW      -0.021800
     34 S1          28.1530    16.6250     0.8560 ss         1 RGW       0.214000
     35 C29         28.5550    15.2130    -5.0530 ca         1 RGW      -0.082000
     36 C30         28.0560    15.8950    -6.1770 ca         1 RGW      -0.109500
     37 H2          30.8600    11.9300    -5.7470 hc         1 RGW       0.039700
     38 H3          29.4770    14.1420    -2.8870 h1         1 RGW       0.049700
     39 H4          31.3520    14.0250    -1.1400 h1         1 RGW       0.079700
     40 H5          32.5700    10.6710    -7.2540 hc         1 RGW       0.039700
     41 H6          33.9180    11.5420    -7.9710 hc         1 RGW       0.039700
     42 H7          33.8100    14.1090    -1.0530 hc         1 RGW       0.086200
     43 H8          33.8250    15.2760    -2.4210 hc         1 RGW       0.086200
     44 H11         32.1210    11.1490    -9.6720 hc         1 RGW       0.049033
     45 H12         33.4970    13.2440    -9.8730 hc         1 RGW       0.041200
     46 H13         31.8590    13.5260   -10.4510 hc         1 RGW       0.041200
     47 H14         31.4530    14.8190    -3.6230 hn         1 RGW       0.441000
     48 H16         33.8300    14.3970    -4.5690 hn         1 RGW       0.315500
     49 H17         29.6920    17.8790    -3.2520 ha         1 RGW       0.125500
     50 H18         28.8140    19.0970    -5.2540 ha         1 RGW       0.130500
     51 H19         29.2690    13.2430    -7.1750 hc         1 RGW       0.049033
     52 H20         29.8740    12.2420    -9.3920 hc         1 RGW       0.041200
     53 H21         30.1640    11.0880    -8.0960 hc         1 RGW       0.041200
     54 H22         30.6440    15.3490    -7.3570 hc         1 RGW       0.041200
     55 H23         30.1550    14.7840    -8.9500 hc         1 RGW       0.041200
     56 H24         32.5930    15.3970    -8.9420 hc         1 RGW       0.049033
     57 H25         34.2050    14.0930    -7.5320 hc         1 RGW       0.039700
     58 H26         33.0450    14.9520    -6.5290 hc         1 RGW       0.039700
     59 H27         31.0950    19.6180     1.6350 hc         1 RGW       0.063033
     60 H28         29.6500    19.1680     0.7290 hc         1 RGW       0.063033
     61 H29         29.9710    18.4390     2.3210 hc         1 RGW       0.063033
     62 H30         27.3240    13.6400    -2.7140 hc         1 RGW       0.047033
     63 H31         25.8440    14.0640    -1.8760 hc         1 RGW       0.047033
     64 H32         26.4480    15.1210    -3.1520 hc         1 RGW       0.047033
     65 H33         25.4000    16.1670     1.2710 hc         1 RGW       0.050033
     66 H34         24.8660    15.9410    -0.4010 hc         1 RGW       0.050033
     67 H35         25.3540    14.5400     0.5730 hc         1 RGW       0.050033
     68 H36         28.4760    14.1290    -5.0050 ha         1 RGW       0.125500
     69 H37         27.6000    15.3410    -6.9930 ha         1 RGW       0.130500
     70 Cl1         27.5390    18.1430    -7.6610 cl         1 RGW      -0.204000
     71 C9          33.5900    12.4240    -5.3630 c3         1 RGW       0.105000
     72 H1          31.0470    13.6530    -5.4560 hc         1 RGW       0.039700
     73 H9          33.2560    11.4630    -4.9510 h1         1 RGW       0.058700
     74 H10         34.6300    12.2970    -5.6920 h1         1 RGW       0.058700
@<TRIPOS>BOND
     1     1     3 1   
     2     1    13 ar  
     3     1    35 ar  
     4     2     8 1   
     5     2    17 1   
     6     2    37 1   
     7     2    72 1   
     8     3    11 1   
     9     3    29 1   
    10     3    38 1   
    11     4     6 1   
    12     4    11 1   
    13     4    23 1   
    14     4    39 1   
    15     5     8 1   
    16     5     9 1   
    17     5    40 1   
    18     5    41 1   
    19     6     7 1   
    20     6    42 1   
    21     6    43 1   
    22     7    12 1   
    23     7    22 2   
    24     8    21 1   
    25     8    71 1   
    26     9    10 1   
    27     9    18 1   
    28     9    44 1   
    29    10    20 1   
    30    10    45 1   
    31    10    46 1   
    32    11    47 1   
    33    12    48 1   
    34    12    71 1   
    35    13    16 ar  
    36    13    49 1   
    37    14    23 2   
    38    14    24 1   
    39    15    16 ar  
    40    15    36 ar  
    41    15    70 1   
    42    16    50 1   
    43    17    18 1   
    44    17    19 1   
    45    17    51 1   
    46    18    52 1   
    47    18    53 1   
    48    19    20 1   
    49    19    54 1   
    50    19    55 1   
    51    20    21 1   
    52    20    56 1   
    53    21    57 1   
    54    21    58 1   
    55    23    27 1   
    56    24    25 2   
    57    25    26 1   
    58    25    27 1   
    59    26    59 1   
    60    26    60 1   
    61    26    61 1   
    62    27    28 1   
    63    28    29 2   
    64    28    34 1   
    65    29    30 1   
    66    30    31 1   
    67    30    32 2   
    68    31    62 1   
    69    31    63 1   
    70    31    64 1   
    71    32    33 1   
    72    32    34 1   
    73    33    65 1   
    74    33    66 1   
    75    33    67 1   
    76    35    36 ar  
    77    35    68 1   
    78    36    69 1   
    79    71    73 1   
    80    71    74 1   
@<TRIPOS>SUBSTRUCTURE
     1 RGW         1 TEMP              0 ****  ****    0 ROOT
