@<TRIPOS>MOLECULE
RGW
   74    80     1     0     0
SMALL
bcc


@<TRIPOS>ATOM
      1 C4          28.8680    15.8320    -3.9490 ca         1 RGW      -0.087300
      2 C14         31.2650    12.9760    -6.2700 c6         1 RGW      -0.062067
      3 C5          29.5150    15.1450    -2.7640 c3         1 RGW       0.301100
      4 C6          31.7190    14.8810    -1.7130 c3         1 RGW       0.168200
      5 C11         32.8620    11.6580    -7.6510 c6         1 RGW      -0.062067
      6 C7          33.0590    14.3380    -2.1830 c3         1 RGW      -0.168400
      7 C8          32.8360    13.1650    -3.1240 c          1 RGW       0.657100
      8 C10         32.7510    12.7340    -6.5630 c6         1 RGW      -0.067000
      9 C12         32.1420    12.1030    -8.9260 c6         1 RGW      -0.058367
     10 C13         32.7670    13.4030    -9.4370 c6         1 RGW      -0.068733
     11 N1          30.9360    15.4170    -2.8250 n7         1 RGW      -0.838200
     12 N2          33.5620    13.2080    -4.2500 ns         1 RGW      -0.567900
     13 C3          28.8230    17.2210    -4.0160 ca         1 RGW      -0.100000
     14 N3          32.9750    16.6360    -0.4270 nc         1 RGW      -0.363000
     15 C1          27.7760    17.0970    -6.1600 ca         1 RGW       0.032400
     16 C2          28.2760    17.8620    -5.1140 ca         1 RGW      -0.127500
     17 C15         30.5390    13.4230    -7.5410 c6         1 RGW      -0.058367
     18 C16         30.6630    12.3410    -8.6150 c6         1 RGW      -0.068733
     19 C17         31.1630    14.7240    -8.0480 c6         1 RGW      -0.068733
     20 C18         32.6420    14.4880    -8.3660 c6         1 RGW      -0.058367
     21 C19         33.3620    14.0370    -7.0930 c6         1 RGW      -0.062067
     22 O1          32.0410    12.2740    -2.8570 o          1 RGW      -0.612100
     23 C20         31.8880    16.0300    -0.7800 cd         1 RGW       0.413800
     24 N4          32.6230    17.7420     0.2830 nc         1 RGW      -0.356000
     25 C21         31.3260    17.7970     0.3420 cd         1 RGW       0.400800
     26 C22         30.5490    18.8760     0.9980 c3         1 RGW      -0.127400
     27 N5          30.8020    16.7160    -0.3170 na         1 RGW      -0.237800
     28 C23         29.4690    16.3080    -0.4530 cc         1 RGW       0.030700
     29 C24         28.8910    15.5930    -1.4650 cd         1 RGW      -0.097300
     30 C25         27.5320    15.2400    -1.1550 cd         1 RGW      -0.082300
     31 C26         26.6550    14.4370    -2.0620 c3         1 RGW      -0.032800
     32 C27         27.1230    15.7020     0.0600 cc         1 RGW      -0.053400
     33 C28         25.7910    15.5480     0.7190 c3         1 RGW      -0.021800
     34 S1          28.3850    16.5410     0.8700 ss         1 RGW      -0.075800
     35 C29         28.3650    15.0910    -5.0080 ca         1 RGW      -0.100000
     36 C30         27.8140    15.7150    -6.1190 ca         1 RGW      -0.127500
     37 H2          30.8080    12.0670    -5.8660 hc         1 RGW       0.039700
     38 H3          29.3100    14.0640    -2.8490 h1         1 RGW       0.049700
     39 H4          31.1840    14.0690    -1.2030 h1         1 RGW       0.079700
     40 H5          32.4320    10.7170    -7.2880 hc         1 RGW       0.039700
     41 H6          33.9170    11.4580    -7.8690 hc         1 RGW       0.039700
     42 H7          33.6320    13.9890    -1.3210 hc         1 RGW       0.086200
     43 H8          33.6450    15.1290    -2.6540 hc         1 RGW       0.086200
     44 H11         32.2390    11.3230    -9.6870 hc         1 RGW       0.049033
     45 H12         33.8200    13.2420    -9.6900 hc         1 RGW       0.041200
     46 H13         32.2670    13.7220   -10.3570 hc         1 RGW       0.041200
     47 H14         31.2940    15.1080    -3.7200 hn         1 RGW       0.385800
     48 H16         34.2140    13.9670    -4.3590 hn         1 RGW       0.315500
     49 H17         29.2170    17.8150    -3.2000 ha         1 RGW       0.143500
     50 H18         28.2400    18.9420    -5.1570 ha         1 RGW       0.148500
     51 H19         29.4830    13.5890    -7.3130 hc         1 RGW       0.049033
     52 H20         30.1310    12.6490    -9.5210 hc         1 RGW       0.041200
     53 H21         30.1930    11.4130    -8.2740 hc         1 RGW       0.041200
     54 H22         31.0570    15.5100    -7.2920 hc         1 RGW       0.041200
     55 H23         30.6330    15.0740    -8.9400 hc         1 RGW       0.041200
     56 H24         33.0950    15.4170    -8.7260 hc         1 RGW       0.049033
     57 H25         34.4310    13.8970    -7.2920 hc         1 RGW       0.039700
     58 H26         33.2790    14.8240    -6.3350 hc         1 RGW       0.039700
     59 H27         31.2180    19.7090     1.2010 hc         1 RGW       0.063033
     60 H28         29.7380    19.2350     0.3640 hc         1 RGW       0.063033
     61 H29         30.1190    18.5570     1.9480 hc         1 RGW       0.063033
     62 H30         27.1620    13.5340    -2.4070 hc         1 RGW       0.047033
     63 H31         25.7460    14.1210    -1.5540 hc         1 RGW       0.047033
     64 H32         26.3600    14.9970    -2.9500 hc         1 RGW       0.047033
     65 H33         25.6660    16.2460     1.5450 hc         1 RGW       0.050033
     66 H34         24.9830    15.7300     0.0130 hc         1 RGW       0.050033
     67 H35         25.6630    14.5410     1.1200 hc         1 RGW       0.050033
     68 H36         28.3940    14.0080    -4.9720 ha         1 RGW       0.143500
     69 H37         27.4200    15.1290    -6.9380 ha         1 RGW       0.148500
     70 CL1         27.0880    17.8900    -7.5400 cl         1 RGW      -0.112400
     71 C9          33.4990    12.2380    -5.3210 c3         1 RGW       0.105000
     72 H1          31.1510    13.7510    -5.5030 hc         1 RGW       0.039700
     73 H9          33.0260    11.3310    -4.9420 h1         1 RGW       0.058700
     74 H10         34.5230    11.9760    -5.6010 h1         1 RGW       0.058700
@<TRIPOS>BOND
     1     1     3 1   
     2     1    13 ar  
     3     1    35 ar  
     4     2     8 1   
     5     2    17 1   
     6     2    37 1   
     7     2    72 1   
     8     3    11 1   
     9     3    29 1   
    10     3    38 1   
    11     4     6 1   
    12     4    11 1   
    13     4    23 1   
    14     4    39 1   
    15     5     8 1   
    16     5     9 1   
    17     5    40 1   
    18     5    41 1   
    19     6     7 1   
    20     6    42 1   
    21     6    43 1   
    22     7    12 1   
    23     7    22 2   
    24     8    21 1   
    25     8    71 1   
    26     9    10 1   
    27     9    18 1   
    28     9    44 1   
    29    10    20 1   
    30    10    45 1   
    31    10    46 1   
    32    11    47 1   
    33    12    48 1   
    34    12    71 1   
    35    13    16 ar  
    36    13    49 1   
    37    14    23 2   
    38    14    24 1   
    39    15    16 ar  
    40    15    36 ar  
    41    15    70 1   
    42    16    50 1   
    43    17    18 1   
    44    17    19 1   
    45    17    51 1   
    46    18    52 1   
    47    18    53 1   
    48    19    20 1   
    49    19    54 1   
    50    19    55 1   
    51    20    21 1   
    52    20    56 1   
    53    21    57 1   
    54    21    58 1   
    55    23    27 1   
    56    24    25 2   
    57    25    26 1   
    58    25    27 1   
    59    26    59 1   
    60    26    60 1   
    61    26    61 1   
    62    27    28 1   
    63    28    29 2   
    64    28    34 1   
    65    29    30 1   
    66    30    31 1   
    67    30    32 2   
    68    31    62 1   
    69    31    63 1   
    70    31    64 1   
    71    32    33 1   
    72    32    34 1   
    73    33    65 1   
    74    33    66 1   
    75    33    67 1   
    76    35    36 ar  
    77    35    68 1   
    78    36    69 1   
    79    71    73 1   
    80    71    74 1   
@<TRIPOS>SUBSTRUCTURE
     1 RGW         1 TEMP              0 ****  ****    0 ROOT
