@<TRIPOS>MOLECULE
RGX
   52    56     1     0     0
SMALL
abcg2


@<TRIPOS>ATOM
      1 N1         -19.9530     5.0550    27.1290 ns         1 RGX      -0.157000
      2 N3         -20.1410     8.5520    30.4220 n7         1 RGX      -0.890300
      3 C4         -22.3910     6.5100    30.9090 c6         1 RGX       0.263100
      4 C5         -22.4140     6.1980    28.4620 c6         1 RGX       0.227800
      5 C6         -21.8910     4.7610    28.5670 c6         1 RGX      -0.098400
      6 C7         -20.3640     4.7340    28.3860 c          1 RGX       0.611100
      7 C8         -18.6150     5.2490    26.7270 ca         1 RGX      -0.080000
      8 C10        -15.9990     5.5350    25.9760 ca         1 RGX       0.346900
      9 C13        -17.4350     8.5840    24.4050 ca         1 RGX      -0.108000
     10 C15        -19.2000     7.3950    25.5660 ca         1 RGX      -0.097000
     11 C17        -22.2770     4.1750    29.9010 ca         1 RGX      -0.049300
     12 C20        -17.9880     8.3280    29.0300 cx         1 RGX      -0.137900
     13 C21        -17.6280     8.3780    30.4930 cx         1 RGX      -0.137900
     14 O2         -21.1410     8.7040    28.0510 o          1 RGX      -0.577000
     15 O1         -22.4020     9.4120    30.0520 o          1 RGX      -0.577000
     16 C19        -18.9480     7.8150    30.0680 cx         1 RGX       0.146500
     17 N          -21.8820     6.9410    29.6050 n3         1 RGX      -0.790500
     18 C3         -22.4850     5.0060    31.0020 ca         1 RGX      -0.063300
     19 C2         -22.8200     4.4380    32.2310 ca         1 RGX      -0.100000
     20 C1         -22.9480     3.0660    32.3790 ca         1 RGX      -0.090000
     21 C18        -22.4090     2.7940    30.0400 ca         1 RGX      -0.084000
     22 C          -22.7410     2.2550    31.2700 ca         1 RGX       0.127000
     23 CL         -22.9050     0.5170    31.4320 cl         1 RGX      -0.207000
     24 O          -19.5960     4.4730    29.2990 o          1 RGX      -0.566100
     25 C16        -18.2810     6.3880    25.9420 ca         1 RGX      -0.034000
     26 C14        -18.7800     8.4650    24.8160 ca         1 RGX      -0.086000
     27 C12        -16.5200     7.6290    24.7680 ca         1 RGX      -0.087000
     28 C11        -16.9200     6.5180    25.5460 ca         1 RGX      -0.090000
     29 N2         -16.3290     4.5000    26.7140 nb         1 RGX      -0.648000
     30 C9         -17.6280     4.3590    27.0760 ca         1 RGX       0.320900
     31 H1         -20.6660     5.2800    26.4520 hn         1 RGX       0.154000
     32 H2         -20.0100     9.4650    30.8400 hn         1 RGX       0.496000
     33 H3         -21.7180     6.8840    31.6800 h1         1 RGX       0.067700
     34 H4         -23.3800     6.9440    31.0940 h1         1 RGX       0.067700
     35 H5         -22.0920     6.6810    27.5470 h1         1 RGX       0.066200
     36 H6         -23.5080     6.1900    28.4820 h1         1 RGX       0.066200
     37 H7         -22.3380     4.1750    27.7600 hc         1 RGX       0.074700
     38 H8         -14.9570     5.6290    25.6850 h4         1 RGX       0.021100
     39 H9         -17.1290     9.4360    23.8130 ha         1 RGX       0.118000
     40 H10        -20.2270     7.3460    25.8960 ha         1 RGX       0.127000
     41 H12        -18.2410     9.2610    28.5450 hc         1 RGX       0.081450
     42 H13        -16.8910     7.6860    30.8750 hc         1 RGX       0.081450
     43 H14        -17.6340     9.3480    30.9750 hc         1 RGX       0.081450
     44 H15        -19.0860     6.7460    30.1360 h1         1 RGX       0.125700
     45 H16        -22.9810     5.0810    33.0890 ha         1 RGX       0.121000
     46 H17        -23.2050     2.6330    33.3360 ha         1 RGX       0.133000
     47 H18        -22.2490     2.1480    29.1860 ha         1 RGX       0.129000
     48 H19        -19.4890     9.2370    24.5430 ha         1 RGX       0.121000
     49 H20        -15.4810     7.7120    24.4720 ha         1 RGX       0.118000
     50 H21        -17.8700     3.4890    27.6710 h4         1 RGX       0.039100
     51 S          -21.4500     8.5080    29.4470 s6         1 RGX       1.340200
     52 H11        -17.4990     7.5990    28.3990 hc         1 RGX       0.081450
@<TRIPOS>BOND
     1     1     6 1   
     2     1     7 1   
     3     1    31 1   
     4     2    16 1   
     5     2    32 1   
     6     2    51 1   
     7     3    17 1   
     8     3    18 1   
     9     3    33 1   
    10     3    34 1   
    11     4     5 1   
    12     4    17 1   
    13     4    35 1   
    14     4    36 1   
    15     5     6 1   
    16     5    11 1   
    17     5    37 1   
    18     6    24 2   
    19     7    25 ar  
    20     7    30 ar  
    21     8    28 ar  
    22     8    29 ar  
    23     8    38 1   
    24     9    26 ar  
    25     9    27 ar  
    26     9    39 1   
    27    10    25 ar  
    28    10    26 ar  
    29    10    40 1   
    30    11    18 ar  
    31    11    21 ar  
    32    12    13 1   
    33    12    16 1   
    34    12    41 1   
    35    12    52 1   
    36    13    16 1   
    37    13    42 1   
    38    13    43 1   
    39    14    51 2   
    40    15    51 2   
    41    16    44 1   
    42    17    51 1   
    43    18    19 ar  
    44    19    20 ar  
    45    19    45 1   
    46    20    22 ar  
    47    20    46 1   
    48    21    22 ar  
    49    21    47 1   
    50    22    23 1   
    51    25    28 ar  
    52    26    48 1   
    53    27    28 ar  
    54    27    49 1   
    55    29    30 ar  
    56    30    50 1   
@<TRIPOS>SUBSTRUCTURE
     1 RGX         1 TEMP              0 ****  ****    0 ROOT
