@<TRIPOS>MOLECULE
RGX
   52    56     1     0     0
SMALL
No Charge or Current Charge


@<TRIPOS>ATOM
      1 N1         -20.1240     5.2860    27.4520 ns         1 RGX      -0.157000
      2 N3         -20.4680     8.9390    30.0870 n7         1 RGX      -0.890300
      3 C4         -21.9500     6.4320    30.7380 c6         1 RGX       0.263100
      4 C5         -22.6730     6.1750    28.4170 c6         1 RGX       0.227800
      5 C6         -22.3660     4.6540    28.3870 c6         1 RGX      -0.098400
      6 C7         -21.0540     4.2770    27.6600 c          1 RGX       0.611100
      7 C8         -18.7900     5.2130    26.9630 ca         1 RGX      -0.080000
      8 C10        -16.1530     5.0120    26.1520 ca         1 RGX       0.346900
      9 C13        -16.9700     8.4180    24.8760 ca         1 RGX      -0.108000
     10 C15        -18.9380     7.4680    25.9510 ca         1 RGX      -0.097000
     11 C17        -22.2910     4.0710    29.8050 ca         1 RGX      -0.049300
     12 C20        -18.2150     9.0350    28.9360 cx         1 RGX      -0.137900
     13 C21        -17.9880     8.9160    30.4230 cx         1 RGX      -0.137900
     14 O2         -21.4560     8.9370    27.7950 o          1 RGX      -0.577000
     15 O1         -22.9860     9.0930    29.8470 o          1 RGX      -0.577000
     16 C19        -19.2070     8.2910    29.7950 cx         1 RGX       0.146500
     17 N          -21.7620     6.8870    29.3360 n3         1 RGX      -0.790500
     18 C3         -22.0550     4.9140    30.9130 ca         1 RGX      -0.063300
     19 C2         -21.9600     4.3610    32.2050 ca         1 RGX      -0.100000
     20 C1         -22.0950     2.9760    32.3970 ca         1 RGX      -0.090000
     21 C18        -22.4320     2.6820    30.0070 ca         1 RGX      -0.084000
     22 C          -22.3330     2.1390    31.2970 ca         1 RGX       0.127000
     23 Cl         -22.5050     0.4040    31.5340 cl         1 RGX      -0.207000
     24 O          -20.8710     3.1330    27.2560 o          1 RGX      -0.566100
     25 C16        -18.2120     6.2990    26.2660 ca         1 RGX      -0.034000
     26 C14        -18.3160     8.5240    25.2620 ca         1 RGX      -0.086000
     27 C12        -16.2440     7.2520    25.1700 ca         1 RGX      -0.087000
     28 C11        -16.8650     6.1920    25.8600 ca         1 RGX      -0.090000
     29 N2         -16.6980     3.9650    26.8110 nb         1 RGX      -0.648000
     30 C9         -17.9890     4.0710    27.2040 ca         1 RGX       0.320900
     31 H1         -20.4080     6.1990    27.7870 hn         1 RGX       0.154000
     32 H2         -20.4010     9.9310    29.8800 hn         1 RGX       0.496000
     33 H3         -21.1250     6.7880    31.3720 h1         1 RGX       0.067700
     34 H4         -22.8700     6.8650    31.1570 h1         1 RGX       0.067700
     35 H5         -22.5940     6.5680    27.3920 h1         1 RGX       0.066200
     36 H6         -23.7180     6.3240    28.7290 h1         1 RGX       0.066200
     37 H7         -23.1730     4.1300    27.8580 hc         1 RGX       0.074700
     38 H8         -15.1120     4.9000    25.8500 h4         1 RGX       0.021100
     39 H9         -16.4920     9.2370    24.3430 ha         1 RGX       0.118000
     40 H10        -19.9830     7.5670    26.2270 ha         1 RGX       0.127000
     41 H12        -18.5000    10.0040    28.5370 hc         1 RGX       0.081450
     42 H13        -17.2020     8.2460    30.7640 hc         1 RGX       0.081450
     43 H14        -18.1230     9.8060    31.0320 hc         1 RGX       0.081450
     44 H15        -19.2140     7.1990    29.7340 h1         1 RGX       0.125700
     45 H16        -21.7860     5.0070    33.0640 ha         1 RGX       0.121000
     46 H17        -22.0200     2.5520    33.3950 ha         1 RGX       0.133000
     47 H18        -22.6120     2.0210    29.1630 ha         1 RGX       0.129000
     48 H19        -18.8810     9.4240    25.0280 ha         1 RGX       0.121000
     49 H20        -15.2040     7.1730    24.8610 ha         1 RGX       0.118000
     50 H21        -18.3790     3.2200    27.7590 h4         1 RGX       0.039100
     51 S          -21.7960     8.5840    29.1690 s6         1 RGX       1.340200
     52 H11        -17.5730     8.4480    28.2840 hc         1 RGX       0.081450
@<TRIPOS>BOND
     1     1     6 1   
     2     1     7 1   
     3     1    31 1   
     4     2    16 1   
     5     2    32 1   
     6     2    51 1   
     7     3    17 1   
     8     3    18 1   
     9     3    33 1   
    10     3    34 1   
    11     4     5 1   
    12     4    17 1   
    13     4    35 1   
    14     4    36 1   
    15     5     6 1   
    16     5    11 1   
    17     5    37 1   
    18     6    24 2   
    19     7    25 ar  
    20     7    30 ar  
    21     8    28 ar  
    22     8    29 ar  
    23     8    38 1   
    24     9    26 ar  
    25     9    27 ar  
    26     9    39 1   
    27    10    25 ar  
    28    10    26 ar  
    29    10    40 1   
    30    11    18 ar  
    31    11    21 ar  
    32    12    13 1   
    33    12    16 1   
    34    12    41 1   
    35    12    52 1   
    36    13    16 1   
    37    13    42 1   
    38    13    43 1   
    39    14    51 2   
    40    15    51 2   
    41    16    44 1   
    42    17    51 1   
    43    18    19 ar  
    44    19    20 ar  
    45    19    45 1   
    46    20    22 ar  
    47    20    46 1   
    48    21    22 ar  
    49    21    47 1   
    50    22    23 1   
    51    25    28 ar  
    52    26    48 1   
    53    27    28 ar  
    54    27    49 1   
    55    29    30 ar  
    56    30    50 1   
@<TRIPOS>SUBSTRUCTURE
     1 RGX         1 TEMP              0 ****  ****    0 ROOT
