@<TRIPOS>MOLECULE
RGY
   34    37     1     0     0
SMALL
No Charge or Current Charge


@<TRIPOS>ATOM
      1 N1          -0.9340    -0.9740     0.9270 n3         1 RGY      -0.727600
      2 N3           3.4220    -0.4290    -0.4110 nc         1 RGY      -0.369300
      3 C4          -1.6360    -0.1550    -1.1520 c5         1 RGY      -0.059700
      4 C5          -3.1490    -0.4110    -0.8920 c5         1 RGY       0.161800
      5 C6          -2.4690     1.0460     0.8210 c5         1 RGY       0.175800
      6 C7          -1.1650     0.3630     0.2450 c5         1 RGY       0.176200
      7 C8           0.1530     1.2610     0.2540 c6         1 RGY       0.247600
      8 C10          1.2230    -0.9500    -0.1650 cc         1 RGY       0.156300
      9 C1          -0.4790    -0.9680     2.3410 c3         1 RGY       0.160100
     10 C11          2.7110     0.6690    -0.1900 cd         1 RGY       0.301300
     11 C12          3.3760     2.0140    -0.0980 c3         1 RGY      -0.134400
     12 C2          -0.0810    -1.7260    -0.0530 c5         1 RGY       0.147200
     13 C3          -0.9190    -1.5460    -1.3550 c5         1 RGY      -0.065400
     14 C9           1.3410     0.3880    -0.0510 cd         1 RGY      -0.265300
     15 N2          -3.5520     0.8230    -0.1870 n7         1 RGY      -0.853400
     16 O1           0.0750     2.3420    -0.6830 oh         1 RGY      -0.634000
     17 O2           2.4500    -1.5100    -0.4010 os         1 RGY      -0.057700
     18 H2          -1.4670     0.5590    -1.9650 hc         1 RGY       0.091700
     19 H3          -3.7150    -0.5570    -1.8220 h1         1 RGY       0.038200
     20 H4          -3.3160    -1.2890    -0.2500 h1         1 RGY       0.038200
     21 H5          -2.7520     0.6060     1.7860 h1         1 RGY       0.042200
     22 H6          -2.3220     2.1220     0.9880 h1         1 RGY       0.042200
     23 H7           0.2770     1.6670     1.2680 h1         1 RGY       0.036700
     24 H8           0.4990    -0.4830     2.4510 h1         1 RGY       0.036700
     25 H9          -1.1950    -0.4380     2.9830 h1         1 RGY       0.036700
     26 H10         -0.3910    -1.9950     2.7170 h1         1 RGY       0.036700
     27 H11          3.2510     2.5740    -1.0320 hc         1 RGY       0.056367
     28 H12          2.9500     2.6080     0.7180 hc         1 RGY       0.056367
     29 H13          4.4520     1.9160     0.0920 hc         1 RGY       0.056367
     30 H14          0.0930    -2.7790     0.2120 h1         1 RGY       0.095700
     31 H15         -1.6320    -2.3680    -1.4800 hc         1 RGY       0.060700
     32 H16         -0.2810    -1.5510    -2.2470 hc         1 RGY       0.060700
     33 H17         -4.4580     0.6940     0.2820 hn         1 RGY       0.414000
     34 H19          0.8760     2.8880    -0.5440 ho         1 RGY       0.441000
@<TRIPOS>BOND
     1     1     6 1   
     2     1     9 1   
     3     1    12 1   
     4     2    10 2   
     5     2    17 1   
     6     3     4 1   
     7     3     6 1   
     8     3    13 1   
     9     3    18 1   
    10     4    15 1   
    11     4    19 1   
    12     4    20 1   
    13     5     6 1   
    14     5    15 1   
    15     5    21 1   
    16     5    22 1   
    17     6     7 1   
    18     7    14 1   
    19     7    16 1   
    20     7    23 1   
    21     8    12 1   
    22     8    14 2   
    23     8    17 1   
    24     9    24 1   
    25     9    25 1   
    26     9    26 1   
    27    10    11 1   
    28    10    14 1   
    29    11    27 1   
    30    11    28 1   
    31    11    29 1   
    32    12    13 1   
    33    12    30 1   
    34    13    31 1   
    35    13    32 1   
    36    15    33 1   
    37    16    34 1   
@<TRIPOS>SUBSTRUCTURE
     1 RGY         1 TEMP              0 ****  ****    0 ROOT
