@<TRIPOS>MOLECULE
RGY
   34    37     1     0     0
SMALL
abcg2


@<TRIPOS>ATOM
      1 N1          -0.8760    -1.0150     1.0310 n3         1 RGY      -0.727600
      2 N3           3.2860    -0.4170    -0.5830 nc         1 RGY      -0.369300
      3 C4          -1.4850    -0.2430    -1.0810 c5         1 RGY      -0.059700
      4 C5          -3.0080    -0.1650    -1.1170 c5         1 RGY       0.161800
      5 C6          -2.4390     0.9290     0.8500 c5         1 RGY       0.175800
      6 C7          -1.1510     0.2530     0.3520 c5         1 RGY       0.176200
      7 C8           0.0780     1.1910     0.3960 c6         1 RGY       0.247600
      8 C10          1.2170    -0.9720    -0.0950 cc         1 RGY       0.156300
      9 C1          -0.4270    -0.9730     2.4030 c3         1 RGY       0.160100
     10 C11          2.6250     0.6720    -0.3010 cd         1 RGY       0.301300
     11 C12          3.2850     2.0040    -0.3460 c3         1 RGY      -0.134400
     12 C2          -0.0440    -1.7550     0.0960 c5         1 RGY       0.147200
     13 C3          -0.8810    -1.6550    -1.1860 c5         1 RGY      -0.065400
     14 C9           1.2750     0.3720     0.0200 cd         1 RGY      -0.265300
     15 N2          -3.2790     1.0270    -0.3360 n7         1 RGY      -0.853400
     16 O1          -0.1340     2.2760    -0.4770 oh         1 RGY      -0.634000
     17 O2           2.3990    -1.4600    -0.4520 os         1 RGY      -0.057700
     18 H2          -1.0700     0.4220    -1.8380 hc         1 RGY       0.091700
     19 H3          -3.4030    -0.0720    -2.1310 h1         1 RGY       0.038200
     20 H4          -3.4360    -1.0810    -0.6790 h1         1 RGY       0.038200
     21 H5          -2.8820     0.3040     1.6370 h1         1 RGY       0.042200
     22 H6          -2.2610     1.9170     1.2810 h1         1 RGY       0.042200
     23 H7           0.1960     1.5640     1.4240 h1         1 RGY       0.036700
     24 H8           0.5790    -0.5600     2.5530 h1         1 RGY       0.036700
     25 H9          -1.1230    -0.3790     2.9980 h1         1 RGY       0.036700
     26 H10         -0.4290    -1.9830     2.8140 h1         1 RGY       0.036700
     27 H11          2.8150     2.6390    -1.0970 hc         1 RGY       0.056367
     28 H12          3.1930     2.5110     0.6150 hc         1 RGY       0.056367
     29 H13          4.3420     1.9130    -0.5870 hc         1 RGY       0.056367
     30 H14          0.1370    -2.7790     0.4300 h1         1 RGY       0.095700
     31 H15         -1.6550    -2.4240    -1.1720 hc         1 RGY       0.060700
     32 H16         -0.2860    -1.7980    -2.0870 hc         1 RGY       0.060700
     33 H17         -4.2580     1.1060    -0.0930 hn         1 RGY       0.414000
     34 H19          0.3340     3.0430    -0.1350 ho         1 RGY       0.441000
@<TRIPOS>BOND
     1     1     6 1   
     2     1     9 1   
     3     1    12 1   
     4     2    10 2   
     5     2    17 1   
     6     3     4 1   
     7     3     6 1   
     8     3    13 1   
     9     3    18 1   
    10     4    15 1   
    11     4    19 1   
    12     4    20 1   
    13     5     6 1   
    14     5    15 1   
    15     5    21 1   
    16     5    22 1   
    17     6     7 1   
    18     7    14 1   
    19     7    16 1   
    20     7    23 1   
    21     8    12 1   
    22     8    14 2   
    23     8    17 1   
    24     9    24 1   
    25     9    25 1   
    26     9    26 1   
    27    10    11 1   
    28    10    14 1   
    29    11    27 1   
    30    11    28 1   
    31    11    29 1   
    32    12    13 1   
    33    12    30 1   
    34    13    31 1   
    35    13    32 1   
    36    15    33 1   
    37    16    34 1   
@<TRIPOS>SUBSTRUCTURE
     1 RGY         1 TEMP              0 ****  ****    0 ROOT
