@<TRIPOS>MOLECULE
RGZ
   44    46     1     0     0
SMALL
No Charge or Current Charge


@<TRIPOS>ATOM
      1 N16          5.0780     1.4820    -0.1290 nh         1 RGZ      -0.780300
      2 C16          5.5960     2.0580    -1.3880 c3         1 RGZ       0.207100
      3 C15          4.1250     2.3220     0.6540 c3         1 RGZ       0.225800
      4 C14          2.6530     2.2650     0.1680 c3         1 RGZ       0.131600
      5 O13          2.1620     0.9160     0.3060 os         1 RGZ      -0.330100
      6 C10          0.8900     0.5510    -0.0800 ca         1 RGZ       0.154100
      7 C9           0.5220    -0.7960     0.0670 ca         1 RGZ      -0.173500
      8 C8          -0.7610    -1.2290    -0.3080 ca         1 RGZ      -0.059500
      9 C11         -0.0400     1.4710    -0.6090 ca         1 RGZ      -0.173500
     10 C12         -1.3240     1.0380    -0.9850 ca         1 RGZ      -0.059500
     11 C7          -1.6910    -0.3140    -0.8360 ca         1 RGZ      -0.142300
     12 C6          -3.0850    -0.7860    -1.2390 c3         1 RGZ       0.001900
     13 C5          -4.0050    -1.0850    -0.0310 c5         1 RGZ      -0.036700
     14 S1          -4.3190     0.4710     0.9640 ss         1 RGZ      -0.261600
     15 C2          -6.1030     0.2920     0.7700 c          1 RGZ       0.592600
     16 O2          -6.9630     1.0320     1.2120 o          1 RGZ      -0.464000
     17 N3          -6.3390    -0.8120     0.0230 ns         1 RGZ      -0.482500
     18 C4          -5.3800    -1.6340    -0.4740 c          1 RGZ       0.574000
     19 O4          -5.6230    -2.6170    -1.1550 o          1 RGZ      -0.488000
     20 C21          5.5180    -2.2030    -0.5110 ca         1 RGZ      -0.038000
     21 C20          5.5650    -2.5210     0.8530 ca         1 RGZ      -0.223000
     22 C19          5.4470    -1.4920     1.8000 ca         1 RGZ       0.385900
     23 N18          5.2900    -0.1950     1.4630 nb         1 RGZ      -0.741000
     24 C22          5.3540    -0.8550    -0.8600 ca         1 RGZ      -0.230000
     25 C17          5.2390     0.1130     0.1550 ca         1 RGZ       0.627900
     26 H22          5.3030    -0.5710    -1.9060 ha         1 RGZ       0.120000
     27 H19          5.4820    -1.7150     2.8660 h4         1 RGZ       0.013100
     28 H20          5.6900    -3.5490     1.1800 ha         1 RGZ       0.123000
     29 H161         6.5580     1.5990    -1.6540 h1         1 RGZ       0.037033
     30 H162         4.8860     1.8920    -2.2080 h1         1 RGZ       0.037033
     31 H163         5.7620     3.1380    -1.2820 h1         1 RGZ       0.037033
     32 H151         4.1460     2.0520     1.7190 h1         1 RGZ       0.076200
     33 H152         4.4480     3.3710     0.6160 h1         1 RGZ       0.076200
     34 H141         2.0510     2.9560     0.7700 h1         1 RGZ       0.037200
     35 H142         2.6090     2.5880    -0.8800 h1         1 RGZ       0.037200
     36 H9           1.2360    -1.5060     0.4740 ha         1 RGZ       0.125500
     37 H11          0.2130     2.5200    -0.7340 ha         1 RGZ       0.125500
     38 H8          -1.0310    -2.2770    -0.1880 ha         1 RGZ       0.114500
     39 H12         -2.0340     1.7570    -1.3890 ha         1 RGZ       0.114500
     40 H61C        -3.5630    -0.0420    -1.8890 hc         1 RGZ       0.066700
     41 H62C        -2.9880    -1.6900    -1.8540 hc         1 RGZ       0.066700
     42 H5          -3.5430    -1.8420     0.6140 h1         1 RGZ       0.115700
     43 H3          -7.3000    -1.0390    -0.1800 hn         1 RGZ       0.351500
     44 H21          5.6050    -2.9760    -1.2730 ha         1 RGZ       0.112000
@<TRIPOS>BOND
     1     1     2 1   
     2     1     3 1   
     3     1    25 1   
     4     2    29 1   
     5     2    30 1   
     6     2    31 1   
     7     3     4 1   
     8     3    32 1   
     9     3    33 1   
    10     4     5 1   
    11     4    34 1   
    12     4    35 1   
    13     5     6 1   
    14     6     7 ar  
    15     6     9 ar  
    16     7     8 ar  
    17     7    36 1   
    18     8    11 ar  
    19     8    38 1   
    20     9    10 ar  
    21     9    37 1   
    22    10    11 ar  
    23    10    39 1   
    24    11    12 1   
    25    12    13 1   
    26    12    40 1   
    27    12    41 1   
    28    13    14 1   
    29    13    18 1   
    30    13    42 1   
    31    14    15 1   
    32    15    16 2   
    33    15    17 1   
    34    17    18 1   
    35    17    43 1   
    36    18    19 2   
    37    20    21 ar  
    38    20    24 ar  
    39    20    44 1   
    40    21    22 ar  
    41    21    28 1   
    42    22    23 ar  
    43    22    27 1   
    44    23    25 ar  
    45    24    25 ar  
    46    24    26 1   
@<TRIPOS>SUBSTRUCTURE
     1 RGZ         1 TEMP              0 ****  ****    0 ROOT
