@<TRIPOS>MOLECULE
RGZ
   44    46     1     0     0
SMALL
abcg2


@<TRIPOS>ATOM
      1 N16          4.8830     1.3780    -0.1750 nh         1 RGZ      -0.780300
      2 C16          5.0350     1.7970    -1.5480 c3         1 RGZ       0.207100
      3 C15          4.0450     2.2050     0.6640 c3         1 RGZ       0.225800
      4 C14          2.5830     2.1850     0.2560 c3         1 RGZ       0.131600
      5 O13          2.1260     0.8500     0.3280 os         1 RGZ      -0.330100
      6 C10          0.8820     0.5590    -0.0910 ca         1 RGZ       0.154100
      7 C9           0.5350    -0.7950    -0.0990 ca         1 RGZ      -0.173500
      8 C8          -0.7240    -1.1880    -0.5080 ca         1 RGZ      -0.059500
      9 C11         -0.0550     1.5020    -0.5030 ca         1 RGZ      -0.173500
     10 C12         -1.3180     1.0860    -0.9140 ca         1 RGZ      -0.059500
     11 C7          -1.6750    -0.2550    -0.9250 ca         1 RGZ      -0.142300
     12 C6          -3.0540    -0.6940    -1.3300 c3         1 RGZ       0.001900
     13 C5          -3.9250    -1.0070    -0.1110 c5         1 RGZ      -0.036700
     14 S1          -4.1390     0.4370     0.9720 ss         1 RGZ      -0.261600
     15 C2          -5.8990     0.3560     0.8790 c          1 RGZ       0.592600
     16 O2          -6.6440     1.1110     1.4410 o          1 RGZ      -0.464000
     17 N3          -6.2810    -0.6880     0.0710 ns         1 RGZ      -0.482500
     18 C4          -5.3170    -1.4610    -0.5090 c          1 RGZ       0.574000
     19 O4          -5.5360    -2.3850    -1.2510 o          1 RGZ      -0.488000
     20 C21          6.0050    -2.1050    -0.3310 ca         1 RGZ      -0.038000
     21 C20          5.8160    -2.4600     1.0010 ca         1 RGZ      -0.223000
     22 C19          5.3060    -1.4870     1.8400 ca         1 RGZ       0.385900
     23 N18          4.9970    -0.2580     1.4550 nb         1 RGZ      -0.741000
     24 C22          5.6860    -0.8320    -0.7580 ca         1 RGZ      -0.230000
     25 C17          5.1750     0.0900     0.1790 ca         1 RGZ       0.627900
     26 H22          5.8200    -0.5700    -1.7970 ha         1 RGZ       0.120000
     27 H19          5.1370    -1.7090     2.8890 h4         1 RGZ       0.013100
     28 H20          6.0530    -3.4480     1.3690 ha         1 RGZ       0.123000
     29 H161         6.0480     1.6130    -1.9080 h1         1 RGZ       0.037033
     30 H162         4.3370     1.3030    -2.2330 h1         1 RGZ       0.037033
     31 H163         4.8610     2.8690    -1.6120 h1         1 RGZ       0.037033
     32 H151         4.1510     1.8870     1.6980 h1         1 RGZ       0.076200
     33 H152         4.3890     3.2400     0.6050 h1         1 RGZ       0.076200
     34 H141         2.0140     2.8380     0.9280 h1         1 RGZ       0.037200
     35 H142         2.4640     2.5750    -0.7620 h1         1 RGZ       0.037200
     36 H9           1.2650    -1.5320     0.2130 ha         1 RGZ       0.125500
     37 H11          0.1710     2.5590    -0.5090 ha         1 RGZ       0.125500
     38 H8          -0.9700    -2.2440    -0.5110 ha         1 RGZ       0.114500
     39 H12         -2.0350     1.8340    -1.2320 ha         1 RGZ       0.114500
     40 H61C        -3.5380     0.0760    -1.9330 hc         1 RGZ       0.066700
     41 H62C        -3.0010    -1.5990    -1.9390 hc         1 RGZ       0.066700
     42 H5          -3.4680    -1.8100     0.4730 h1         1 RGZ       0.115700
     43 H3          -7.2650    -0.8600    -0.0990 hn         1 RGZ       0.351500
     44 H21          6.3930    -2.8230    -1.0420 ha         1 RGZ       0.112000
@<TRIPOS>BOND
     1     1     2 1   
     2     1     3 1   
     3     1    25 1   
     4     2    29 1   
     5     2    30 1   
     6     2    31 1   
     7     3     4 1   
     8     3    32 1   
     9     3    33 1   
    10     4     5 1   
    11     4    34 1   
    12     4    35 1   
    13     5     6 1   
    14     6     7 ar  
    15     6     9 ar  
    16     7     8 ar  
    17     7    36 1   
    18     8    11 ar  
    19     8    38 1   
    20     9    10 ar  
    21     9    37 1   
    22    10    11 ar  
    23    10    39 1   
    24    11    12 1   
    25    12    13 1   
    26    12    40 1   
    27    12    41 1   
    28    13    14 1   
    29    13    18 1   
    30    13    42 1   
    31    14    15 1   
    32    15    16 2   
    33    15    17 1   
    34    17    18 1   
    35    17    43 1   
    36    18    19 2   
    37    20    21 ar  
    38    20    24 ar  
    39    20    44 1   
    40    21    22 ar  
    41    21    28 1   
    42    22    23 ar  
    43    22    27 1   
    44    23    25 ar  
    45    24    25 ar  
    46    24    26 1   
@<TRIPOS>SUBSTRUCTURE
     1 RGZ         1 TEMP              0 ****  ****    0 ROOT
