@<TRIPOS>MOLECULE
RH0
   33    33     1     0     0
SMALL
No Charge or Current Charge


@<TRIPOS>ATOM
      1 N           -3.1810     1.7020     0.0580 n8         1 RH0      -0.853800
      2 C1          -3.0700     0.2290     0.1600 c3         1 RH0       0.155500
      3 C2          -1.6840    -0.2720    -0.3830 c3         1 RH0       0.106100
      4 O1          -1.5400    -1.6860    -0.1790 oh         1 RH0      -0.582800
      5 C3          -4.2830    -0.4330    -0.5460 c3         1 RH0      -0.194400
      6 C           -5.5660    -0.2290     0.2750 c          1 RH0       0.941600
      7 O           -5.7980    -1.0080     1.1930 o          1 RH0      -0.845800
      8 OXT         -6.3310     0.6800    -0.0270 o          1 RH0      -0.845800
      9 C5          -0.4690     0.4200     0.2870 c3         1 RH0      -0.026300
     10 S1           1.1310    -0.2950    -0.3120 ss         1 RH0      -0.316200
     11 C6           2.3190     0.7260     0.6640 c3         1 RH0       0.048000
     12 C7           3.7540     0.3290     0.3540 ca         1 RH0      -0.062300
     13 C8           4.4550     0.9590    -0.6930 ca         1 RH0      -0.113000
     14 C9           5.7830     0.5930    -0.9780 ca         1 RH0      -0.132000
     15 C10          6.4160    -0.4060    -0.2190 ca         1 RH0      -0.132000
     16 C11          5.7200    -1.0390     0.8260 ca         1 RH0      -0.132000
     17 C12          4.3930    -0.6730     1.1110 ca         1 RH0      -0.113000
     18 H           -2.3690     2.1370     0.5030 hn         1 RH0       0.316300
     19 H1          -3.1110    -0.0340     1.2280 h1         1 RH0       0.072700
     20 H3          -4.3730     0.0170    -1.5430 hc         1 RH0       0.025200
     21 H4          -4.0630    -1.5060    -0.5750 hc         1 RH0       0.025200
     22 H6          -0.4740     1.4930     0.0560 h1         1 RH0       0.055200
     23 H7          -0.5280     0.3010     1.3770 h1         1 RH0       0.055200
     24 H8           2.1630     1.7850     0.4210 h1         1 RH0       0.059700
     25 H9           2.1150     0.5880     1.7330 h1         1 RH0       0.059700
     26 H10          3.9700     1.7310    -1.2860 ha         1 RH0       0.134000
     27 H11          6.3200     1.0830    -1.7880 ha         1 RH0       0.125500
     28 H12          7.4430    -0.6890    -0.4400 ha         1 RH0       0.123000
     29 H13          6.2090    -1.8140     1.4140 ha         1 RH0       0.125500
     30 H14          3.8590    -1.1680     1.9190 ha         1 RH0       0.134000
     31 H2          -3.1200     1.9770    -0.9260 hn         1 RH0       0.316300
     32 H16         -1.6410    -0.0510    -1.4590 h1         1 RH0       0.072700
     33 H17         -0.5820    -1.8730    -0.2760 ho         1 RH0       0.400000
@<TRIPOS>BOND
     1     1     2 1   
     2     1    18 1   
     3     1    31 1   
     4     2     3 1   
     5     2     5 1   
     6     2    19 1   
     7     3     4 1   
     8     3     9 1   
     9     3    32 1   
    10     4    33 1   
    11     5     6 1   
    12     5    20 1   
    13     5    21 1   
    14     6     7 1   
    15     6     8 1   
    16     9    10 1   
    17     9    22 1   
    18     9    23 1   
    19    10    11 1   
    20    11    12 1   
    21    11    24 1   
    22    11    25 1   
    23    12    13 ar  
    24    12    17 ar  
    25    13    14 ar  
    26    13    26 1   
    27    14    15 ar  
    28    14    27 1   
    29    15    16 ar  
    30    15    28 1   
    31    16    17 ar  
    32    16    29 1   
    33    17    30 1   
@<TRIPOS>SUBSTRUCTURE
     1 RH0         1 TEMP              0 ****  ****    0 ROOT
