@<TRIPOS>MOLECULE
RH0
   33    33     1     0     0
SMALL
bcc


@<TRIPOS>ATOM
      1 N           -3.0510     1.5850     0.3870 n8         1 RH0      -0.853800
      2 C1          -2.9390     0.1440     0.2170 c3         1 RH0       0.155500
      3 C2          -1.5470    -0.3160    -0.2580 c3         1 RH0       0.106100
      4 O1          -1.4580    -1.7230    -0.3560 oh         1 RH0      -0.582800
      5 C3          -4.0230    -0.3240    -0.7460 c3         1 RH0      -0.194400
      6 C           -5.4410    -0.0120    -0.2460 c          1 RH0       0.941600
      7 O           -5.7130    -0.3710     0.9190 o          1 RH0      -0.845800
      8 OXT         -6.2220     0.5450    -1.0440 o          1 RH0      -0.845800
      9 C5          -0.4260     0.2330     0.6180 c3         1 RH0      -0.026300
     10 S1           1.1530    -0.4840     0.0760 ss         1 RH0      -0.316200
     11 C6           2.3140     0.6880     0.8500 c3         1 RH0       0.048000
     12 C7           3.7000     0.3530     0.3850 ca         1 RH0      -0.062300
     13 C8           4.2000     0.9080    -0.7910 ca         1 RH0      -0.113000
     14 C9           5.4710     0.5830    -1.2430 ca         1 RH0      -0.132000
     15 C10          6.2570    -0.3110    -0.5250 ca         1 RH0      -0.132000
     16 C11          5.7640    -0.8750     0.6440 ca         1 RH0      -0.132000
     17 C12          4.4920    -0.5450     1.0940 ca         1 RH0      -0.113000
     18 H           -2.4200     1.9160     1.1050 hn         1 RH0       0.316300
     19 H1          -3.1290    -0.3100     1.1960 h1         1 RH0       0.072700
     20 H3          -3.8530     0.1320    -1.7280 hc         1 RH0       0.025200
     21 H4          -3.9360    -1.4050    -0.8910 hc         1 RH0       0.025200
     22 H6          -0.3560     1.3170     0.5160 h1         1 RH0       0.055200
     23 H7          -0.6000     0.0040     1.6740 h1         1 RH0       0.055200
     24 H8           2.0420     1.7030     0.5600 h1         1 RH0       0.059700
     25 H9           2.2360     0.6130     1.9350 h1         1 RH0       0.059700
     26 H10          3.5890     1.6040    -1.3540 ha         1 RH0       0.134000
     27 H11          5.8480     1.0280    -2.1540 ha         1 RH0       0.125500
     28 H12          7.2500    -0.5640    -0.8740 ha         1 RH0       0.123000
     29 H13          6.3700    -1.5720     1.2080 ha         1 RH0       0.125500
     30 H14          4.1140    -0.9880     2.0090 ha         1 RH0       0.134000
     31 H2          -2.7850     2.0600    -0.4690 hn         1 RH0       0.316300
     32 H16         -1.3900     0.0560    -1.2770 h1         1 RH0       0.072700
     33 H17         -1.6430    -2.0980     0.5120 ho         1 RH0       0.400000
@<TRIPOS>BOND
     1     1     2 1   
     2     1    18 1   
     3     1    31 1   
     4     2     3 1   
     5     2     5 1   
     6     2    19 1   
     7     3     4 1   
     8     3     9 1   
     9     3    32 1   
    10     4    33 1   
    11     5     6 1   
    12     5    20 1   
    13     5    21 1   
    14     6     7 1   
    15     6     8 1   
    16     9    10 1   
    17     9    22 1   
    18     9    23 1   
    19    10    11 1   
    20    11    12 1   
    21    11    24 1   
    22    11    25 1   
    23    12    13 ar  
    24    12    17 ar  
    25    13    14 ar  
    26    13    26 1   
    27    14    15 ar  
    28    14    27 1   
    29    15    16 ar  
    30    15    28 1   
    31    16    17 ar  
    32    16    29 1   
    33    17    30 1   
@<TRIPOS>SUBSTRUCTURE
     1 RH0         1 TEMP              0 ****  ****    0 ROOT
