@<TRIPOS>MOLECULE
RH2
   44    45     1     0     0
SMALL
No Charge or Current Charge


@<TRIPOS>ATOM
      1 N01         -4.1100     3.5080     0.0800 nt         1 RH2      -0.605000
      2 C02         -3.0860     2.7130     0.4730 c          1 RH2       0.561100
      3 C03         -3.0510     1.2630    -0.1370 c3         1 RH2       0.100500
      4 C04         -4.1220     0.3590     0.5310 c3         1 RH2      -0.065400
      5 C05         -4.3350    -1.0020    -0.1770 c3         1 RH2      -0.073400
      6 C06         -5.4420    -1.8580     0.4770 c3         1 RH2      -0.079400
      7 C07         -5.6470    -3.2130    -0.2300 c3         1 RH2       0.149800
      8 N08         -6.7090    -4.0070     0.4160 n8         1 RH2      -0.994200
      9 N09         -1.7090     0.6000    -0.0650 n7         1 RH2      -0.853400
     10 C10         -0.6700     1.1590    -0.9420 c3         1 RH2       0.236100
     11 C11          0.6170     0.4190    -0.7190 cc         1 RH2      -0.215300
     12 C12          0.8490    -0.9330    -0.8320 cd         1 RH2      -0.110000
     13 C13          2.1940    -1.3100    -0.5660 cd         1 RH2      -0.125000
     14 C14          2.9900    -0.2370    -0.2470 cc         1 RH2      -0.159000
     15 C15          4.4200    -0.3860     0.0520 ca         1 RH2      -0.055000
     16 C16          5.3010     0.6990    -0.1320 ca         1 RH2      -0.071000
     17 C17          6.6620     0.5240     0.1700 ca         1 RH2      -0.160000
     18 C18          7.1060    -0.7190     0.6480 ca         1 RH2       0.335900
     19 N19          6.2770    -1.7700     0.8370 nb         1 RH2      -0.665000
     20 C20          4.9640    -1.5980     0.5430 ca         1 RH2       0.349900
     21 S21          2.0950     1.2800    -0.2900 ss         1 RH2       0.215000
     22 O22         -2.2540     3.1450     1.2570 o          1 RH2      -0.608100
     23 H1          -4.8010     3.1650    -0.5710 hn         1 RH2       0.313500
     24 H2          -4.1720     4.4480     0.4440 hn         1 RH2       0.313500
     25 H3          -3.3410     1.3730    -1.1910 h1         1 RH2       0.058700
     26 H4          -3.8480     0.1880     1.5800 hc         1 RH2       0.050200
     27 H5          -5.0800     0.8940     0.5430 hc         1 RH2       0.050200
     28 H6          -4.5920    -0.8240    -1.2290 hc         1 RH2       0.046700
     29 H7          -3.3960    -1.5700    -0.1700 hc         1 RH2       0.046700
     30 H8          -5.1850    -2.0360     1.5290 hc         1 RH2       0.045700
     31 H9          -6.3850    -1.2970     0.4660 hc         1 RH2       0.045700
     32 H10         -5.9230    -3.0450    -1.2810 h1         1 RH2       0.026200
     33 H11         -4.7120    -3.7900    -0.2040 h1         1 RH2       0.026200
     34 H12         -7.6020    -3.5100     0.3190 hn         1 RH2       0.391000
     35 H13         -6.8550    -4.8700    -0.1220 hn         1 RH2       0.391000
     36 H15         -1.3680     0.6800     0.9000 hn         1 RH2       0.438000
     37 H17         -0.9600     1.0630    -1.9980 h1         1 RH2       0.042700
     38 H18         -0.5120     2.2260    -0.7340 h1         1 RH2       0.042700
     39 H20          0.0740    -1.6440    -1.1000 ha         1 RH2       0.140000
     40 H22          2.5380    -2.3380    -0.6250 ha         1 RH2       0.135000
     41 H25          4.9460     1.6560    -0.5080 ha         1 RH2       0.122000
     42 H26          7.3690     1.3380     0.0360 ha         1 RH2       0.124000
     43 H27          8.1570    -0.8790     0.8880 h4         1 RH2       0.020100
     44 H28          4.3290    -2.4640     0.7230 h4         1 RH2       0.022100
@<TRIPOS>BOND
     1     1     2 1   
     2     1    23 1   
     3     1    24 1   
     4     2     3 1   
     5     2    22 2   
     6     3     4 1   
     7     3     9 1   
     8     3    25 1   
     9     4     5 1   
    10     4    26 1   
    11     4    27 1   
    12     5     6 1   
    13     5    28 1   
    14     5    29 1   
    15     6     7 1   
    16     6    30 1   
    17     6    31 1   
    18     7     8 1   
    19     7    32 1   
    20     7    33 1   
    21     8    34 1   
    22     8    35 1   
    23     9    10 1   
    24     9    36 1   
    25    10    11 1   
    26    10    37 1   
    27    10    38 1   
    28    11    12 2   
    29    11    21 1   
    30    12    13 1   
    31    12    39 1   
    32    13    14 2   
    33    13    40 1   
    34    14    15 1   
    35    14    21 1   
    36    15    16 ar  
    37    15    20 ar  
    38    16    17 ar  
    39    16    41 1   
    40    17    18 ar  
    41    17    42 1   
    42    18    19 ar  
    43    18    43 1   
    44    19    20 ar  
    45    20    44 1   
@<TRIPOS>SUBSTRUCTURE
     1 RH2         1 TEMP              0 ****  ****    0 ROOT
