@<TRIPOS>MOLECULE
RH2
   44    45     1     0     0
SMALL
abcg2


@<TRIPOS>ATOM
      1 N01         -3.8340     3.5430    -0.2180 nt         1 RH2      -0.605000
      2 C02         -3.0530     2.6480     0.4010 c          1 RH2       0.561100
      3 C03         -3.0400     1.2470    -0.2200 c3         1 RH2       0.100500
      4 C04         -4.0690     0.3800     0.5140 c3         1 RH2      -0.065400
      5 C05         -4.2880    -0.9720    -0.1500 c3         1 RH2      -0.073400
      6 C06         -5.2310    -1.8680     0.6420 c3         1 RH2      -0.079400
      7 C07         -5.4740    -3.2070    -0.0370 c3         1 RH2       0.149800
      8 N08         -6.3580    -4.0460     0.7600 n8         1 RH2      -0.994200
      9 N09         -1.7410     0.6200    -0.1670 n7         1 RH2      -0.853400
     10 C10         -0.7250     1.2670    -0.9780 c3         1 RH2       0.236100
     11 C11          0.5520     0.4890    -0.9130 cc         1 RH2      -0.215300
     12 C12          0.7910    -0.7740    -1.3680 cd         1 RH2      -0.110000
     13 C13          2.1010    -1.2300    -1.0860 cd         1 RH2      -0.125000
     14 C14          2.8570    -0.3120    -0.4060 cc         1 RH2      -0.159000
     15 C15          4.2380    -0.4340     0.0480 ca         1 RH2      -0.055000
     16 C16          5.0670     0.6690     0.2470 ca         1 RH2      -0.071000
     17 C17          6.3670     0.4720     0.6780 ca         1 RH2      -0.160000
     18 C18          6.8100    -0.8250     0.8870 ca         1 RH2       0.335900
     19 N19          6.0350    -1.8880     0.7040 nb         1 RH2      -0.665000
     20 C20          4.7880    -1.6930     0.3050 ca         1 RH2       0.349900
     21 S21          1.9370     1.1190    -0.1150 ss         1 RH2       0.215000
     22 O22         -2.4130     2.8960     1.4140 o          1 RH2      -0.608100
     23 H1          -4.3240     3.3200    -1.0660 hn         1 RH2       0.313500
     24 H2          -3.9500     4.4730     0.1530 hn         1 RH2       0.313500
     25 H3          -3.3370     1.3210    -1.2730 h1         1 RH2       0.058700
     26 H4          -3.7370     0.2410     1.5490 hc         1 RH2       0.050200
     27 H5          -5.0190     0.9190     0.5670 hc         1 RH2       0.050200
     28 H6          -4.6890    -0.8150    -1.1570 hc         1 RH2       0.046700
     29 H7          -3.3250    -1.4730    -0.2780 hc         1 RH2       0.046700
     30 H8          -4.8210    -2.0440     1.6410 hc         1 RH2       0.045700
     31 H9          -6.1900    -1.3570     0.7860 hc         1 RH2       0.045700
     32 H10         -5.8450    -3.0250    -1.0570 h1         1 RH2       0.026200
     33 H11         -4.5190    -3.7280    -0.1510 h1         1 RH2       0.026200
     34 H12         -7.2730    -3.6130     0.8060 hn         1 RH2       0.391000
     35 H13         -6.5020    -4.9290     0.2880 hn         1 RH2       0.391000
     36 H15         -1.4280     0.5790     0.7970 hn         1 RH2       0.438000
     37 H17         -1.0750     1.2820    -2.0140 h1         1 RH2       0.042700
     38 H18         -0.5340     2.3140    -0.7050 h1         1 RH2       0.042700
     39 H20          0.0510    -1.3580    -1.8960 ha         1 RH2       0.140000
     40 H22          2.4760    -2.1960    -1.3940 ha         1 RH2       0.135000
     41 H25          4.7090     1.6740     0.0560 ha         1 RH2       0.122000
     42 H26          7.0310     1.3100     0.8390 ha         1 RH2       0.124000
     43 H27          7.8260    -1.0130     1.2150 h4         1 RH2       0.020100
     44 H28          4.1780    -2.5830     0.1900 h4         1 RH2       0.022100
@<TRIPOS>BOND
     1     1     2 1   
     2     1    23 1   
     3     1    24 1   
     4     2     3 1   
     5     2    22 2   
     6     3     4 1   
     7     3     9 1   
     8     3    25 1   
     9     4     5 1   
    10     4    26 1   
    11     4    27 1   
    12     5     6 1   
    13     5    28 1   
    14     5    29 1   
    15     6     7 1   
    16     6    30 1   
    17     6    31 1   
    18     7     8 1   
    19     7    32 1   
    20     7    33 1   
    21     8    34 1   
    22     8    35 1   
    23     9    10 1   
    24     9    36 1   
    25    10    11 1   
    26    10    37 1   
    27    10    38 1   
    28    11    12 2   
    29    11    21 1   
    30    12    13 1   
    31    12    39 1   
    32    13    14 2   
    33    13    40 1   
    34    14    15 1   
    35    14    21 1   
    36    15    16 ar  
    37    15    20 ar  
    38    16    17 ar  
    39    16    41 1   
    40    17    18 ar  
    41    17    42 1   
    42    18    19 ar  
    43    18    43 1   
    44    19    20 ar  
    45    20    44 1   
@<TRIPOS>SUBSTRUCTURE
     1 RH2         1 TEMP              0 ****  ****    0 ROOT
