@<TRIPOS>MOLECULE
RH4
   30    31     1     0     0
SMALL
No Charge or Current Charge


@<TRIPOS>ATOM
      1 C4           1.9900     1.2060     0.4910 cc         1 RH4       0.117300
      2 C5           2.7510     2.0480    -0.2700 cd         1 RH4      -0.170000
      3 C6           4.0890     1.6270    -0.1340 cd         1 RH4      -0.186000
      4 C7           4.0900     0.5460     0.7060 cc         1 RH4       0.127900
      5 C8          -1.7550     0.2740    -0.1060 ca         1 RH4      -0.048300
      6 C10         -3.8150     0.2540     1.1850 ca         1 RH4       0.332400
      7 N           -4.5830     0.4330     0.0860 nb         1 RH4      -0.658000
      8 C            0.2550    -1.2660    -0.0430 c          1 RH4       0.600100
      9 O            0.0720    -1.9250     0.9740 o          1 RH4      -0.479000
     10 C1           1.4400    -3.0690    -1.1170 c3         1 RH4       0.151900
     11 C11         -3.9550     0.5300    -1.1090 ca         1 RH4       0.332400
     12 C12         -2.5580     0.4550    -1.2470 ca         1 RH4      -0.146500
     13 C2          -0.2310     0.1870    -0.2270 c3         1 RH4      -0.076400
     14 C3           0.5060     1.1620     0.7290 c3         1 RH4      -0.092700
     15 C9          -2.4130     0.1700     1.1350 ca         1 RH4      -0.146500
     16 O2           2.7990     0.2760     1.1040 os         1 RH4      -0.240000
     17 H1           2.3860     2.8780    -0.8660 ha         1 RH4       0.141000
     18 H2           4.9620     2.0690    -0.6040 ha         1 RH4       0.142000
     19 H3           4.8840    -0.0850     1.0830 h4         1 RH4       0.052100
     20 H4          -4.3410     0.1740     2.1360 h4         1 RH4       0.020600
     21 H5           1.9400    -3.3090    -2.0640 h1         1 RH4       0.049367
     22 H6           2.1730    -3.1800    -0.3080 h1         1 RH4       0.049367
     23 H7           0.6360    -3.8010    -0.9630 h1         1 RH4       0.049367
     24 H8          -4.5910     0.6720    -1.9810 h4         1 RH4       0.020600
     25 H9          -2.1150     0.5400    -2.2360 ha         1 RH4       0.129500
     26 H10          0.0530     0.4850    -1.2440 hc         1 RH4       0.085700
     27 H11          0.3170     0.8810     1.7720 hc         1 RH4       0.072700
     28 H12          0.0920     2.1700     0.6010 hc         1 RH4       0.072700
     29 H13         -1.8580     0.0170     2.0560 ha         1 RH4       0.129500
     30 O1           0.9150    -1.7300    -1.1530 os         1 RH4      -0.434100
@<TRIPOS>BOND
     1     1     2 2   
     2     1    14 1   
     3     1    16 1   
     4     2     3 1   
     5     2    17 1   
     6     3     4 2   
     7     3    18 1   
     8     4    16 1   
     9     4    19 1   
    10     5    12 ar  
    11     5    13 1   
    12     5    15 ar  
    13     6     7 ar  
    14     6    15 ar  
    15     6    20 1   
    16     7    11 ar  
    17     8     9 2   
    18     8    13 1   
    19     8    30 1   
    20    10    21 1   
    21    10    22 1   
    22    10    23 1   
    23    10    30 1   
    24    11    12 ar  
    25    11    24 1   
    26    12    25 1   
    27    13    14 1   
    28    13    26 1   
    29    14    27 1   
    30    14    28 1   
    31    15    29 1   
@<TRIPOS>SUBSTRUCTURE
     1 RH4         1 TEMP              0 ****  ****    0 ROOT
