@<TRIPOS>MOLECULE
RH4
   30    31     1     0     0
SMALL
abcg2


@<TRIPOS>ATOM
      1 C4           1.9260     1.1730     0.4010 cc         1 RH4       0.117300
      2 C5           2.7590     2.0270    -0.2420 cd         1 RH4      -0.170000
      3 C6           4.0720     1.4740    -0.1280 cd         1 RH4      -0.186000
      4 C7           3.9330     0.3270     0.5750 cc         1 RH4       0.127900
      5 C8          -1.7780     0.2590    -0.1370 ca         1 RH4      -0.048300
      6 C10         -3.7570     0.2110     1.2080 ca         1 RH4       0.332400
      7 N           -4.5570     0.4470     0.1740 nb         1 RH4      -0.658000
      8 C            0.2180    -1.2290    -0.1010 c          1 RH4       0.600100
      9 O           -0.0470    -1.8890     0.8710 o          1 RH4      -0.479000
     10 C1           1.6420    -2.9050    -0.9300 c3         1 RH4       0.151900
     11 C11         -3.9830     0.5920    -1.0140 ca         1 RH4       0.332400
     12 C12         -2.6140     0.5080    -1.2190 ca         1 RH4      -0.146500
     13 C2          -0.2870     0.1830    -0.3350 c3         1 RH4      -0.076400
     14 C3           0.4570     1.1610     0.6050 c3         1 RH4      -0.092700
     15 C9          -2.3790     0.1090     1.1100 ca         1 RH4      -0.146500
     16 O2           2.6370     0.1370     0.9020 os         1 RH4      -0.240000
     17 H1           2.4720     2.9400    -0.7390 ha         1 RH4       0.141000
     18 H2           4.9920     1.8820    -0.5130 ha         1 RH4       0.142000
     19 H3           4.6330    -0.4210     0.9090 h4         1 RH4       0.052100
     20 H4          -4.2360     0.0970     2.1750 h4         1 RH4       0.020600
     21 H5           2.2600    -3.0340    -1.8130 h1         1 RH4       0.049367
     22 H6           2.2690    -2.9320    -0.0400 h1         1 RH4       0.049367
     23 H7           0.9080    -3.7100    -0.8800 h1         1 RH4       0.049367
     24 H8          -4.6430     0.7870    -1.8530 h4         1 RH4       0.020600
     25 H9          -2.2100     0.6410    -2.2150 ha         1 RH4       0.129500
     26 H10         -0.0590     0.4730    -1.3630 hc         1 RH4       0.085700
     27 H11          0.2180     0.9300     1.6460 hc         1 RH4       0.072700
     28 H12          0.0770     2.1640     0.4080 hc         1 RH4       0.072700
     29 H13         -1.8000    -0.0820     2.0020 ha         1 RH4       0.129500
     30 O1           1.0110    -1.6310    -1.0780 os         1 RH4      -0.434100
@<TRIPOS>BOND
     1     1     2 2   
     2     1    14 1   
     3     1    16 1   
     4     2     3 1   
     5     2    17 1   
     6     3     4 2   
     7     3    18 1   
     8     4    16 1   
     9     4    19 1   
    10     5    12 ar  
    11     5    13 1   
    12     5    15 ar  
    13     6     7 ar  
    14     6    15 ar  
    15     6    20 1   
    16     7    11 ar  
    17     8     9 2   
    18     8    13 1   
    19     8    30 1   
    20    10    21 1   
    21    10    22 1   
    22    10    23 1   
    23    10    30 1   
    24    11    12 ar  
    25    11    24 1   
    26    12    25 1   
    27    13    14 1   
    28    13    26 1   
    29    14    27 1   
    30    14    28 1   
    31    15    29 1   
@<TRIPOS>SUBSTRUCTURE
     1 RH4         1 TEMP              0 ****  ****    0 ROOT
