@<TRIPOS>MOLECULE
RH6
   38    39     1     0     0
SMALL
abcg2


@<TRIPOS>ATOM
      1 C13          4.5160     0.3500    17.8640 cc         1 RH6      -0.189200
      2 C15          2.8830     1.4280    16.2610 c2         1 RH6      -0.189200
      3 C20          6.0600    -0.9520    19.2410 ca         1 RH6      -0.222800
      4 C21          6.8720    -2.0720    19.5050 ca         1 RH6      -0.001000
      5 C01          7.5690    -2.1940    20.6800 ca         1 RH6      -0.224000
      6 C02          7.4960    -1.1880    21.6900 ca         1 RH6       0.404000
      7 C04          9.0950    -2.4220    23.1120 c3         1 RH6       0.224300
      8 C05          8.4090    -3.6550    23.6950 c3         1 RH6      -0.115600
      9 C06          8.0090    -0.3610    23.9540 c3         1 RH6       0.224300
     10 C07          8.9650     0.8260    23.8680 c3         1 RH6      -0.115600
     11 C08          6.6910    -0.0580    21.4280 ca         1 RH6      -0.244000
     12 C09          6.0040     0.0350    20.2370 ca         1 RH6       0.227100
     13 C11          4.4970     1.3790    18.8910 c          1 RH6       0.681300
     14 C14          3.7310     0.4640    16.6400 ce         1 RH6      -0.184000
     15 C16          2.1230     1.3990    14.9730 c3         1 RH6      -0.059900
     16 C19          5.2960    -0.7590    18.0700 cd         1 RH6      -0.048200
     17 N03          8.1750    -1.3150    22.8620 nh         1 RH6      -0.827400
     18 O10          5.2470     1.1530    20.0330 os         1 RH6      -0.351200
     19 O12          3.8910     2.4330    18.8660 o          1 RH6      -0.497000
     20 H1           2.7210     2.2790    16.9090 ha         1 RH6       0.197000
     21 H2           6.9370    -2.8560    18.7600 ha         1 RH6       0.114000
     22 H3           8.1630    -3.0790    20.8400 ha         1 RH6       0.118000
     23 H4           9.6210    -2.6730    22.1920 h1         1 RH6       0.051450
     24 H5           9.8520    -2.0570    23.8070 h1         1 RH6       0.051450
     25 H6           9.1450    -4.4390    23.8850 hc         1 RH6       0.044533
     26 H7           7.9170    -3.4120    24.6380 hc         1 RH6       0.044533
     27 H8           7.6580    -4.0500    23.0090 hc         1 RH6       0.044533
     28 H9           6.9730    -0.0210    23.9820 h1         1 RH6       0.051450
     29 H10          8.1770    -0.9050    24.8850 h1         1 RH6       0.051450
     30 H11          8.8120     1.4930    24.7180 hc         1 RH6       0.044533
     31 H12         10.0020     0.4850    23.8830 hc         1 RH6       0.044533
     32 H13          8.8050     1.3950    22.9510 hc         1 RH6       0.044533
     33 H14          6.6050     0.7570    22.1300 ha         1 RH6       0.138000
     34 H15          3.8690    -0.3790    15.9660 ha         1 RH6       0.161000
     35 H16          1.0440     1.4250    15.1570 hc         1 RH6       0.040700
     36 H17          2.3530     2.2780    14.3620 hc         1 RH6       0.040700
     37 H18          2.3500     0.5050    14.3900 hc         1 RH6       0.040700
     38 H19          5.3240    -1.5280    17.3050 ha         1 RH6       0.185000
@<TRIPOS>BOND
     1     1    13 1   
     2     1    14 1   
     3     1    16 2   
     4     2    14 2   
     5     2    15 1   
     6     2    20 1   
     7     3     4 ar  
     8     3    12 ar  
     9     3    16 1   
    10     4     5 ar  
    11     4    21 1   
    12     5     6 ar  
    13     5    22 1   
    14     6    11 ar  
    15     6    17 1   
    16     7     8 1   
    17     7    17 1   
    18     7    23 1   
    19     7    24 1   
    20     8    25 1   
    21     8    26 1   
    22     8    27 1   
    23     9    10 1   
    24     9    17 1   
    25     9    28 1   
    26     9    29 1   
    27    10    30 1   
    28    10    31 1   
    29    10    32 1   
    30    11    12 ar  
    31    11    33 1   
    32    12    18 1   
    33    13    18 1   
    34    13    19 2   
    35    14    34 1   
    36    15    35 1   
    37    15    36 1   
    38    15    37 1   
    39    16    38 1   
@<TRIPOS>SUBSTRUCTURE
     1 RH6         1 TEMP              0 ****  ****    0 ROOT
