@<TRIPOS>MOLECULE
RH6
   38    39     1     0     0
SMALL
No Charge or Current Charge


@<TRIPOS>ATOM
      1 C13          4.6940     0.4510    17.6350 cc         1 RH6      -0.189200
      2 C15          2.7270     1.2260    16.3020 c2         1 RH6      -0.189200
      3 C20          5.9530    -0.9510    19.2280 ca         1 RH6      -0.222800
      4 C21          6.4720    -2.1990    19.6050 ca         1 RH6      -0.001000
      5 C01          7.1900    -2.3200    20.8050 ca         1 RH6      -0.224000
      6 C02          7.3980    -1.2040    21.6410 ca         1 RH6       0.404000
      7 C04          9.2320    -2.3090    22.9940 c3         1 RH6       0.224300
      8 C05          8.8450    -3.5790    23.7750 c3         1 RH6      -0.115600
      9 C06          7.8090    -0.4930    24.0370 c3         1 RH6       0.224300
     10 C07          8.7910     0.6740    24.2530 c3         1 RH6      -0.115600
     11 C08          6.8710     0.0380    21.2480 ca         1 RH6      -0.244000
     12 C09          6.1570     0.1590    20.0520 ca         1 RH6       0.227100
     13 C11          4.9470     1.6220    18.5410 c          1 RH6       0.681300
     14 C14          3.9430     0.6470    16.3920 ce         1 RH6      -0.184000
     15 C16          1.9250     1.3720    15.0280 c3         1 RH6      -0.059900
     16 C19          5.2010    -0.7790    17.9910 cd         1 RH6      -0.048200
     17 N03          8.1250    -1.3310    22.8550 nh         1 RH6      -0.827400
     18 O10          5.6600     1.3820    19.6900 os         1 RH6      -0.351200
     19 O12          4.5510     2.7530    18.2900 o          1 RH6      -0.497000
     20 H1           2.2390     1.6350    17.1900 ha         1 RH6       0.197000
     21 H2           6.3190    -3.0730    18.9740 ha         1 RH6       0.114000
     22 H3           7.5740    -3.2950    21.0850 ha         1 RH6       0.118000
     23 H4           9.6010    -2.6030    22.0020 h1         1 RH6       0.051450
     24 H5          10.0840    -1.8360    23.5010 h1         1 RH6       0.051450
     25 H6           9.6910    -4.2750    23.8060 hc         1 RH6       0.044533
     26 H7           8.5670    -3.3340    24.8070 hc         1 RH6       0.044533
     27 H8           7.9980    -4.0880    23.3010 hc         1 RH6       0.044533
     28 H9           6.7920    -0.0860    23.9490 h1         1 RH6       0.051450
     29 H10          7.8040    -1.1140    24.9430 h1         1 RH6       0.051450
     30 H11          8.4790     1.2750    25.1150 hc         1 RH6       0.044533
     31 H12          9.8040     0.3020    24.4470 hc         1 RH6       0.044533
     32 H13          8.8250     1.3260    23.3730 hc         1 RH6       0.044533
     33 H14          7.0210     0.9210    21.8570 ha         1 RH6       0.138000
     34 H15          4.3940     0.1970    15.5050 ha         1 RH6       0.161000
     35 H16          0.9760     1.8910    15.2140 hc         1 RH6       0.040700
     36 H17          2.4790     1.9480    14.2770 hc         1 RH6       0.040700
     37 H18          1.6910     0.3920    14.5950 hc         1 RH6       0.040700
     38 H19          5.0290    -1.6320    17.3390 ha         1 RH6       0.185000
@<TRIPOS>BOND
     1     1    13 1   
     2     1    14 1   
     3     1    16 2   
     4     2    14 2   
     5     2    15 1   
     6     2    20 1   
     7     3     4 ar  
     8     3    12 ar  
     9     3    16 1   
    10     4     5 ar  
    11     4    21 1   
    12     5     6 ar  
    13     5    22 1   
    14     6    11 ar  
    15     6    17 1   
    16     7     8 1   
    17     7    17 1   
    18     7    23 1   
    19     7    24 1   
    20     8    25 1   
    21     8    26 1   
    22     8    27 1   
    23     9    10 1   
    24     9    17 1   
    25     9    28 1   
    26     9    29 1   
    27    10    30 1   
    28    10    31 1   
    29    10    32 1   
    30    11    12 ar  
    31    11    33 1   
    32    12    18 1   
    33    13    18 1   
    34    13    19 2   
    35    14    34 1   
    36    15    35 1   
    37    15    36 1   
    38    15    37 1   
    39    16    38 1   
@<TRIPOS>SUBSTRUCTURE
     1 RH6         1 TEMP              0 ****  ****    0 ROOT
