@<TRIPOS>MOLECULE
RH7
   34    37     1     0     0
SMALL
No Charge or Current Charge


@<TRIPOS>ATOM
      1 C13         -2.5850     0.7330     0.1320 ca         1 RH7       0.320300
      2 C15         -4.8780     0.7540     0.2660 ca         1 RH7       0.293900
      3 C01          5.8530    -0.5870    -0.0100 c3         1 RH7       0.169900
      4 C03          3.6940     0.4650    -0.1410 c          1 RH7       0.645100
      5 C06          1.7530    -0.9600     0.6620 c5         1 RH7       0.127000
      6 C07          0.3160    -0.5030     1.0690 c5         1 RH7      -0.108700
      7 C08         -0.6780    -1.6800     0.7530 c5         1 RH7      -0.094400
      8 C09         -1.2680    -1.2760    -0.6440 c5         1 RH7       0.112000
      9 C11         -0.0330     0.5590    -0.0050 c5         1 RH7       0.143000
     10 C12         -1.2580     1.4700     0.3050 c6         1 RH7      -0.136700
     11 C16         -4.9170    -0.5820    -0.2160 ca         1 RH7       0.283900
     12 C18         -2.6130    -0.6070    -0.3520 ca         1 RH7       0.270300
     13 C19          1.3180     1.2990    -0.2480 c5         1 RH7       0.129000
     14 N05          2.3310     0.2890     0.1290 n          1 RH7      -0.409800
     15 N14         -3.7100     1.4300     0.4460 nb         1 RH7      -0.637000
     16 N17         -3.7880    -1.2780    -0.5290 nb         1 RH7      -0.624000
     17 O02          4.4320    -0.6320     0.2140 os         1 RH7      -0.454100
     18 O04          4.1550     1.4840    -0.6350 o          1 RH7      -0.544000
     19 O10         -0.3390    -0.2800    -1.1370 os         1 RH7      -0.423000
     20 H1          -5.7970     1.2850     0.5080 h4         1 RH7       0.032100
     21 H2           6.3120     0.2360     0.5530 h1         1 RH7       0.047700
     22 H3           6.3200    -1.5250     0.3170 h1         1 RH7       0.047700
     23 H4           6.0780    -0.4490    -1.0750 h1         1 RH7       0.047700
     24 H5           2.3130    -1.3480     1.5240 h1         1 RH7       0.056700
     25 H6           1.7480    -1.7310    -0.1220 h1         1 RH7       0.056700
     26 H7           0.2660    -0.1230     2.0960 hc         1 RH7       0.076700
     27 H8          -0.1790    -2.6560     0.7130 hc         1 RH7       0.064700
     28 H9          -1.4540    -1.7720     1.5230 hc         1 RH7       0.064700
     29 H10         -1.3660    -2.1120    -1.3490 h1         1 RH7       0.109700
     30 H11         -1.2440     2.3360    -0.3700 hc         1 RH7       0.078700
     31 H12         -1.1790     1.8680     1.3250 hc         1 RH7       0.078700
     32 H13         -5.8660    -1.0990    -0.3510 h4         1 RH7       0.032100
     33 H14          1.4230     1.6190    -1.2930 h1         1 RH7       0.070200
     34 H15          1.4070     2.1860     0.3930 h1         1 RH7       0.070200
@<TRIPOS>BOND
     1     1    10 1   
     2     1    12 ar  
     3     1    15 ar  
     4     2    11 ar  
     5     2    15 ar  
     6     2    20 1   
     7     3    17 1   
     8     3    21 1   
     9     3    22 1   
    10     3    23 1   
    11     4    14 1   
    12     4    17 1   
    13     4    18 2   
    14     5     6 1   
    15     5    14 1   
    16     5    24 1   
    17     5    25 1   
    18     6     7 1   
    19     6     9 1   
    20     6    26 1   
    21     7     8 1   
    22     7    27 1   
    23     7    28 1   
    24     8    12 1   
    25     8    19 1   
    26     8    29 1   
    27     9    10 1   
    28     9    13 1   
    29     9    19 1   
    30    10    30 1   
    31    10    31 1   
    32    11    16 ar  
    33    11    32 1   
    34    12    16 ar  
    35    13    14 1   
    36    13    33 1   
    37    13    34 1   
@<TRIPOS>SUBSTRUCTURE
     1 RH7         1 TEMP              0 ****  ****    0 ROOT
