@<TRIPOS>MOLECULE
RH7
   34    37     1     0     0
SMALL
bcc


@<TRIPOS>ATOM
      1 C13         -2.4980     0.7600     0.1590 ca         1 RH7       0.320300
      2 C15         -4.7490     0.8520     0.3700 ca         1 RH7       0.293900
      3 C01          5.7850    -0.3860     0.1110 c3         1 RH7       0.146700
      4 C03          3.6030     0.4500    -0.1460 c          1 RH7       0.761100
      5 C06          1.7600    -0.9970     0.6930 c5         1 RH7       0.127000
      6 C07          0.2920    -0.6530     0.9620 c5         1 RH7      -0.108700
      7 C08         -0.6780    -1.7920     0.6190 c5         1 RH7      -0.094400
      8 C09         -1.3430    -1.2750    -0.6730 c5         1 RH7       0.088800
      9 C11         -0.0230     0.4330    -0.0830 c5         1 RH7       0.119800
     10 C12         -1.1460     1.4010     0.2820 c6         1 RH7      -0.136700
     11 C16         -4.8560    -0.4440    -0.1080 ca         1 RH7       0.283900
     12 C18         -2.6110    -0.5440    -0.3300 ca         1 RH7       0.270300
     13 C19          1.2890     1.1420    -0.3560 c5         1 RH7       0.129000
     14 N05          2.3040     0.2040     0.0800 n          1 RH7      -0.476800
     15 N14         -3.5730     1.4530     0.5020 nb         1 RH7      -0.637000
     16 N17         -3.7820    -1.1420    -0.4580 nb         1 RH7      -0.624000
     17 O02          4.3810    -0.5490     0.2780 os         1 RH7      -0.430900
     18 O04          4.0270     1.4630    -0.6730 o          1 RH7      -0.593000
     19 O10         -0.4250    -0.3390    -1.2090 os         1 RH7      -0.376600
     20 H1          -5.6330     1.4140     0.6500 h4         1 RH7       0.032100
     21 H2           6.1600     0.4790     0.6570 h1         1 RH7       0.047700
     22 H3           6.2390    -1.2860     0.5170 h1         1 RH7       0.047700
     23 H4           6.0590    -0.2920    -0.9400 h1         1 RH7       0.047700
     24 H5           2.2850    -1.2530     1.6120 h1         1 RH7       0.056700
     25 H6           1.8430    -1.8510     0.0140 h1         1 RH7       0.056700
     26 H7           0.1660    -0.2850     1.9810 hc         1 RH7       0.076700
     27 H8          -0.1540    -2.7320     0.4430 hc         1 RH7       0.064700
     28 H9          -1.4100    -1.9730     1.4060 hc         1 RH7       0.064700
     29 H10         -1.5340    -2.0550    -1.4110 h1         1 RH7       0.109700
     30 H11         -1.1150     2.2690    -0.3850 hc         1 RH7       0.078700
     31 H12         -1.0030     1.7860     1.2950 hc         1 RH7       0.078700
     32 H13         -5.8220    -0.9210    -0.2130 h4         1 RH7       0.032100
     33 H14          1.3890     1.4030    -1.4120 h1         1 RH7       0.070200
     34 H15          1.3400     2.0710     0.2190 h1         1 RH7       0.070200
@<TRIPOS>BOND
     1     1    10 1   
     2     1    12 ar  
     3     1    15 ar  
     4     2    11 ar  
     5     2    15 ar  
     6     2    20 1   
     7     3    17 1   
     8     3    21 1   
     9     3    22 1   
    10     3    23 1   
    11     4    14 1   
    12     4    17 1   
    13     4    18 2   
    14     5     6 1   
    15     5    14 1   
    16     5    24 1   
    17     5    25 1   
    18     6     7 1   
    19     6     9 1   
    20     6    26 1   
    21     7     8 1   
    22     7    27 1   
    23     7    28 1   
    24     8    12 1   
    25     8    19 1   
    26     8    29 1   
    27     9    10 1   
    28     9    13 1   
    29     9    19 1   
    30    10    30 1   
    31    10    31 1   
    32    11    16 ar  
    33    11    32 1   
    34    12    16 ar  
    35    13    14 1   
    36    13    33 1   
    37    13    34 1   
@<TRIPOS>SUBSTRUCTURE
     1 RH7         1 TEMP              0 ****  ****    0 ROOT
