@<TRIPOS>MOLECULE
RH8
   51    55     1     0     0
SMALL
abcg2


@<TRIPOS>ATOM
      1 C8           8.3040    16.1210    23.5630 ca         1 RH8       0.312000
      2 C3          10.7460    19.2160    20.3270 c6         1 RH8       0.188800
      3 C4          10.8520    20.1490    19.1330 c6         1 RH8       0.159300
      4 N2           7.8850    15.4180    24.7050 nu         1 RH8      -0.940900
      5 C1           9.7920    18.5230    17.7380 c6         1 RH8       0.159300
      6 N3           6.9260    13.7900    26.0000 nb         1 RH8      -0.242000
      7 N1           9.5930    18.3360    20.1730 nh         1 RH8      -0.769400
      8 C2           9.6760    17.5760    18.9180 c6         1 RH8       0.188800
      9 C5           9.2020    17.6040    21.3060 ca         1 RH8       0.224000
     10 C6           9.9840    17.4700    22.4600 ca         1 RH8      -0.118000
     11 C7           9.5480    16.7470    23.5650 ca         1 RH8      -0.145000
     12 C9           7.1860    14.2430    24.7590 ca         1 RH8       0.386900
     13 C10          6.2460    12.6460    26.0630 ca         1 RH8       0.150900
     14 C13          5.7900    11.8510    22.4500 cc         1 RH8      -0.367400
     15 C14          4.9990    10.7030    22.2610 cc         1 RH8       0.392500
     16 C12          6.1530    12.4950    23.7000 ca         1 RH8       0.275800
     17 C11          5.8220    11.9480    24.9450 ca         1 RH8      -0.269000
     18 N4           6.8370    13.6470    23.6180 nb         1 RH8      -0.258000
     19 C15          6.3430    12.2360    18.4390 cc         1 RH8       0.292900
     20 C16          7.0120    13.2440    19.1740 cc         1 RH8      -0.154000
     21 C20          7.9460    16.9860    21.3610 ca         1 RH8       0.151000
     22 C19          7.4870    16.2650    22.4390 ca         1 RH8      -0.143000
     23 C18          6.1530    12.2380    21.1480 cd         1 RH8      -0.080000
     24 C17          6.9210    13.2460    20.5370 cd         1 RH8      -0.029000
     25 F            7.1010    17.1260    20.3030 f          1 RH8      -0.182000
     26 N           10.9490    19.3990    17.8860 n3         1 RH8      -0.720600
     27 C           11.0970    20.2850    16.7420 c3         1 RH8       0.151100
     28 N6           5.5570    11.3070    20.3090 na         1 RH8       0.417200
     29 N5           4.8540    10.3760    20.9760 nd         1 RH8      -0.522100
     30 N7           5.6300    11.2790    18.9800 nd         1 RH8      -0.425800
     31 H2          10.6230    19.8060    21.2350 h1         1 RH8       0.045450
     32 H3          11.7450    20.7680    19.2420 h1         1 RH8       0.042450
     33 H4           9.9770    20.8230    19.1220 h1         1 RH8       0.042450
     34 H5           8.2770    15.7080    25.5880 hn         1 RH8       0.514000
     35 H6           8.8600    19.1090    17.6540 h1         1 RH8       0.042450
     36 H7           9.9050    17.9440    16.8190 h1         1 RH8       0.042450
     37 H8           8.7870    16.9620    18.8020 h1         1 RH8       0.045450
     38 H9          10.5510    16.9090    18.9420 h1         1 RH8       0.045450
     39 H10         10.9630    17.9240    22.4930 ha         1 RH8       0.120000
     40 H11         10.1910    16.6540    24.4310 ha         1 RH8       0.119000
     41 H12          6.0310    12.2690    27.0580 h4         1 RH8       0.024100
     42 H13          4.5180    10.0990    23.0140 h4         1 RH8       0.052800
     43 H14          5.2740    11.0230    25.0410 ha         1 RH8       0.135000
     44 H15          6.3960    12.2080    17.3580 h4         1 RH8       0.043100
     45 H16          7.5860    13.9930    18.6480 ha         1 RH8       0.138000
     46 H17          6.4970    15.8390    22.4050 ha         1 RH8       0.152000
     47 H18          7.4100    13.9820    21.1540 ha         1 RH8       0.166000
     48 H20         11.9900    20.9010    16.8660 h1         1 RH8       0.033033
     49 H21         11.2050    19.6950    15.8310 h1         1 RH8       0.033033
     50 H22         10.2310    20.9560    16.6170 h1         1 RH8       0.033033
     51 H1          11.6810    18.6410    20.4190 h1         1 RH8       0.045450
@<TRIPOS>BOND
     1     1     4 1   
     2     1    11 ar  
     3     1    22 ar  
     4     2     3 1   
     5     2     7 1   
     6     2    31 1   
     7     2    51 1   
     8     3    26 1   
     9     3    32 1   
    10     3    33 1   
    11     4    12 1   
    12     4    34 1   
    13     5     8 1   
    14     5    26 1   
    15     5    35 1   
    16     5    36 1   
    17     6    12 ar  
    18     6    13 ar  
    19     7     8 1   
    20     7     9 1   
    21     8    37 1   
    22     8    38 1   
    23     9    10 ar  
    24     9    21 ar  
    25    10    11 ar  
    26    10    39 1   
    27    11    40 1   
    28    12    18 ar  
    29    13    17 ar  
    30    13    41 1   
    31    14    15 1   
    32    14    16 1   
    33    14    23 2   
    34    15    29 2   
    35    15    42 1   
    36    16    17 ar  
    37    16    18 ar  
    38    17    43 1   
    39    19    20 1   
    40    19    30 2   
    41    19    44 1   
    42    20    24 2   
    43    20    45 1   
    44    21    22 ar  
    45    21    25 1   
    46    22    46 1   
    47    23    24 1   
    48    23    28 1   
    49    24    47 1   
    50    26    27 1   
    51    27    48 1   
    52    27    49 1   
    53    27    50 1   
    54    28    29 1   
    55    28    30 1   
@<TRIPOS>SUBSTRUCTURE
     1 RH8         1 TEMP              0 ****  ****    0 ROOT
