@<TRIPOS>MOLECULE
RH8
   51    55     1     0     0
SMALL
No Charge or Current Charge


@<TRIPOS>ATOM
      1 C8           8.4710    16.0080    23.4260 ca         1 RH8       0.312000
      2 C3          10.7830    19.5340    20.3740 c6         1 RH8       0.188800
      3 C4          10.7540    20.5310    19.1690 c6         1 RH8       0.159300
      4 N2           8.0410    15.2550    24.5220 nu         1 RH8      -0.940900
      5 C1          10.1190    18.7250    17.6450 c6         1 RH8       0.159300
      6 N3           6.9040    13.8320    25.9330 nb         1 RH8      -0.242000
      7 N1           9.9050    18.3420    20.1510 nh         1 RH8      -0.769400
      8 C2          10.1380    17.6940    18.8210 c6         1 RH8       0.188800
      9 C5           9.4140    17.5680    21.2400 ca         1 RH8       0.224000
     10 C6          10.1930    17.4100    22.4060 ca         1 RH8      -0.118000
     11 C7           9.7230    16.6420    23.4870 ca         1 RH8      -0.145000
     12 C9           7.2100    14.1510    24.6660 ca         1 RH8       0.386900
     13 C10          6.1030    12.7640    26.1000 ca         1 RH8       0.150900
     14 C13          5.5270    11.6990    22.5350 cc         1 RH8      -0.367400
     15 C14          4.5700    10.6520    22.4830 cc         1 RH8       0.392500
     16 C12          6.0160    12.4300    23.7120 ca         1 RH8       0.275800
     17 C11          5.6250    12.0290    25.0030 ca         1 RH8      -0.269000
     18 N4           6.8120    13.5050    23.5570 nb         1 RH8      -0.258000
     19 C15          6.0650    11.6660    18.5880 cc         1 RH8       0.292900
     20 C16          6.8960    12.6400    19.2510 cc         1 RH8      -0.154000
     21 C20          8.1400    16.9410    21.1990 ca         1 RH8       0.151000
     22 C19          7.6760    16.1780    22.2810 ca         1 RH8      -0.143000
     23 C18          5.8930    11.8910    21.2250 cd         1 RH8      -0.080000
     24 C17          6.8330    12.7780    20.6160 cd         1 RH8      -0.029000
     25 F            7.3300    17.0850    20.1220 f          1 RH8      -0.182000
     26 N           11.0560    19.8700    17.8620 n3         1 RH8      -0.720600
     27 C           11.0670    20.8210    16.7310 c3         1 RH8       0.151100
     28 N6           5.1350    10.9680    20.5110 na         1 RH8       0.417200
     29 N5           4.3060    10.1840    21.2720 nd         1 RH8      -0.522100
     30 N7           5.1890    10.8190    19.1400 nd         1 RH8      -0.425800
     31 H2          10.4670    20.0750    21.2790 h1         1 RH8       0.045450
     32 H3          11.4760    21.3360    19.3660 h1         1 RH8       0.042450
     33 H4           9.7580    20.9980    19.1320 h1         1 RH8       0.042450
     34 H5           8.4930    15.5120    25.3990 hn         1 RH8       0.514000
     35 H6           9.0900    19.0970    17.5280 h1         1 RH8       0.042450
     36 H7          10.3740    18.1960    16.7140 h1         1 RH8       0.042450
     37 H8           9.3790    16.9260    18.6210 h1         1 RH8       0.045450
     38 H9          11.1140    17.1870    18.8270 h1         1 RH8       0.045450
     39 H10         11.1740    17.8710    22.4760 ha         1 RH8       0.120000
     40 H11         10.3450    16.5280    24.3710 ha         1 RH8       0.119000
     41 H12          5.8410    12.4970    27.1220 h4         1 RH8       0.024100
     42 H13          4.0420    10.2120    23.3190 h4         1 RH8       0.052800
     43 H14          4.9800    11.1720    25.1660 ha         1 RH8       0.135000
     44 H15          6.1170    11.5610    17.5130 h4         1 RH8       0.043100
     45 H16          7.5650    13.2500    18.6540 ha         1 RH8       0.138000
     46 H17          6.6860    15.7390    22.2280 ha         1 RH8       0.152000
     47 H18          7.4530    13.4900    21.1460 ha         1 RH8       0.166000
     48 H20         11.7990    21.6210    16.9040 h1         1 RH8       0.033033
     49 H21         11.3390    20.3110    15.7970 h1         1 RH8       0.033033
     50 H22         10.0790    21.2830    16.5950 h1         1 RH8       0.033033
     51 H1          11.8210    19.2070    20.5330 h1         1 RH8       0.045450
@<TRIPOS>BOND
     1     1     4 1   
     2     1    11 ar  
     3     1    22 ar  
     4     2     3 1   
     5     2     7 1   
     6     2    31 1   
     7     2    51 1   
     8     3    26 1   
     9     3    32 1   
    10     3    33 1   
    11     4    12 1   
    12     4    34 1   
    13     5     8 1   
    14     5    26 1   
    15     5    35 1   
    16     5    36 1   
    17     6    12 ar  
    18     6    13 ar  
    19     7     8 1   
    20     7     9 1   
    21     8    37 1   
    22     8    38 1   
    23     9    10 ar  
    24     9    21 ar  
    25    10    11 ar  
    26    10    39 1   
    27    11    40 1   
    28    12    18 ar  
    29    13    17 ar  
    30    13    41 1   
    31    14    15 1   
    32    14    16 1   
    33    14    23 2   
    34    15    29 2   
    35    15    42 1   
    36    16    17 ar  
    37    16    18 ar  
    38    17    43 1   
    39    19    20 1   
    40    19    30 2   
    41    19    44 1   
    42    20    24 2   
    43    20    45 1   
    44    21    22 ar  
    45    21    25 1   
    46    22    46 1   
    47    23    24 1   
    48    23    28 1   
    49    24    47 1   
    50    26    27 1   
    51    27    48 1   
    52    27    49 1   
    53    27    50 1   
    54    28    29 1   
    55    28    30 1   
@<TRIPOS>SUBSTRUCTURE
     1 RH8         1 TEMP              0 ****  ****    0 ROOT
