@<TRIPOS>MOLECULE
RHB
   63    66     1     0     0
SMALL
No Charge or Current Charge


@<TRIPOS>ATOM
      1 O2           1.5910    -4.1130    -2.4780 o          1 RHB      -0.667000
      2 C26          1.0170    -3.2340    -1.8490 c          1 RHB       0.684000
      3 C19          0.4550    -3.5730    -0.4880 cc         1 RHB      -0.091000
      4 C14         -0.1630    -2.6050     0.4090 cc         1 RHB      -0.115000
      5 C15         -0.8060    -3.0760     1.6110 cc         1 RHB      -0.185000
      6 C16         -0.8160    -4.4130     1.9480 cd         1 RHB      -0.194000
      7 C17         -0.1640    -5.3700     1.0980 cd         1 RHB      -0.178000
      8 C18          0.4430    -4.9580    -0.0720 cc         1 RHB      -0.147000
      9 C9          -0.0930    -1.2250     0.2100 cd         1 RHB       0.344000
     10 C8          -1.2890    -0.3520     0.2950 ca         1 RHB      -0.209000
     11 C13         -2.5980    -0.8650     0.4440 ca         1 RHB       0.050500
     12 C12         -3.7020     0.0010     0.4920 ca         1 RHB      -0.230500
     13 C11         -3.5390     1.3890     0.3680 ca         1 RHB       0.438000
     14 N1          -4.6550     2.2630     0.4150 nh         1 RHB      -0.799900
     15 C35         -4.5410     3.6300     0.9810 c3         1 RHB       0.217050
     16 C36         -4.4830     4.7390    -0.0850 c3         1 RHB      -0.116600
     17 C22         -5.9870     1.8460    -0.0870 c3         1 RHB       0.217050
     18 C23         -6.9760     1.4570     1.0280 c3         1 RHB      -0.116600
     19 C10         -2.2480     1.8920     0.1700 ca         1 RHB      -0.275000
     20 C7          -1.1440     1.0350     0.1230 ca         1 RHB       0.286000
     21 O1           0.0800     1.5910    -0.1320 os         1 RHB      -0.281000
     22 C1           1.2370     0.8600    -0.1170 ca         1 RHB       0.286000
     23 C2           1.2110    -0.5300     0.0740 ca         1 RHB      -0.209000
     24 C6           2.4450     1.5530    -0.2470 ca         1 RHB      -0.275000
     25 C5           3.6700     0.8800    -0.1640 ca         1 RHB       0.438000
     26 C4           3.6560    -0.5030     0.0760 ca         1 RHB      -0.230500
     27 C3           2.4460    -1.2030     0.2050 ca         1 RHB       0.050500
     28 N2           4.8920     1.5880    -0.2940 nh         1 RHB      -0.799900
     29 C24          5.0110     2.7640    -1.1890 c3         1 RHB       0.217050
     30 C25          5.0120     4.1120    -0.4440 c3         1 RHB      -0.116600
     31 C33          6.1080     1.1740     0.4490 c3         1 RHB       0.217050
     32 C34          7.1290     0.4080    -0.4120 c3         1 RHB      -0.116600
     33 O3           0.8270    -2.1280    -2.3310 o          1 RHB      -0.667000
     34 H1          -1.2460    -2.3540     2.2960 ha         1 RHB       0.171000
     35 H2          -1.2940    -4.7390     2.8700 ha         1 RHB       0.176000
     36 H3          -0.1610    -6.4240     1.3690 ha         1 RHB       0.179000
     37 H4           0.9010    -5.7040    -0.7180 ha         1 RHB       0.214000
     38 H5          -2.7850    -1.9340     0.5040 ha         1 RHB       0.143500
     39 H6          -4.6890    -0.4250     0.6290 ha         1 RHB       0.128000
     40 H7          -5.3930     3.8300     1.6450 h1         1 RHB       0.056075
     41 H8          -3.6460     3.7010     1.6140 h1         1 RHB       0.056075
     42 H9          -4.3550     5.7170     0.3940 hc         1 RHB       0.047367
     43 H10         -3.6430     4.5810    -0.7710 hc         1 RHB       0.047367
     44 H11         -5.4080     4.7670    -0.6720 hc         1 RHB       0.047367
     45 H12         -6.4320     2.6570    -0.6790 h1         1 RHB       0.056075
     46 H13         -5.8800     0.9980    -0.7770 h1         1 RHB       0.056075
     47 H14         -7.1880     2.3130     1.6780 hc         1 RHB       0.047367
     48 H15         -7.9220     1.1190     0.5910 hc         1 RHB       0.047367
     49 H16         -6.5720     0.6450     1.6440 hc         1 RHB       0.047367
     50 H17         -2.0870     2.9530     0.0290 ha         1 RHB       0.137000
     51 H18          2.4150     2.6260    -0.3870 ha         1 RHB       0.137000
     52 H19          4.5860    -1.0540     0.1590 ha         1 RHB       0.128000
     53 H20          5.9340     2.6920    -1.7790 h1         1 RHB       0.056075
     54 H21          4.1890     2.7660    -1.9190 h1         1 RHB       0.056075
     55 H22          4.1030     4.2290     0.1570 hc         1 RHB       0.047367
     56 H23          5.8790     4.1910     0.2210 hc         1 RHB       0.047367
     57 H24          5.0570     4.9390    -1.1620 hc         1 RHB       0.047367
     58 H25          6.6030     2.0580     0.8720 h1         1 RHB       0.056075
     59 H26          5.8290     0.5480     1.3070 h1         1 RHB       0.056075
     60 H27          7.5100     1.0400    -1.2230 hc         1 RHB       0.047367
     61 H28          7.9810     0.0950     0.2030 hc         1 RHB       0.047367
     62 H29          6.6770    -0.4870    -0.8550 hc         1 RHB       0.047367
     63 H31          2.4900    -2.2680     0.4160 ha         1 RHB       0.143500
@<TRIPOS>BOND
     1     1     2 1   
     2     2     3 2   
     3     2    33 1   
     4     3     4 1   
     5     3     8 1   
     6     4     5 1   
     7     4     9 2   
     8     5     6 2   
     9     5    34 1   
    10     6     7 1   
    11     6    35 1   
    12     7     8 2   
    13     7    36 1   
    14     8    37 1   
    15     9    10 1   
    16     9    23 1   
    17    10    11 ar  
    18    10    20 ar  
    19    11    12 ar  
    20    11    38 1   
    21    12    13 ar  
    22    12    39 1   
    23    13    14 1   
    24    13    19 ar  
    25    14    15 1   
    26    14    17 1   
    27    15    16 1   
    28    15    40 1   
    29    15    41 1   
    30    16    42 1   
    31    16    43 1   
    32    16    44 1   
    33    17    18 1   
    34    17    45 1   
    35    17    46 1   
    36    18    47 1   
    37    18    48 1   
    38    18    49 1   
    39    19    20 ar  
    40    19    50 1   
    41    20    21 1   
    42    21    22 1   
    43    22    23 ar  
    44    22    24 ar  
    45    23    27 ar  
    46    24    25 ar  
    47    24    51 1   
    48    25    26 ar  
    49    25    28 1   
    50    26    27 ar  
    51    26    52 1   
    52    27    63 1   
    53    28    29 1   
    54    28    31 1   
    55    29    30 1   
    56    29    53 1   
    57    29    54 1   
    58    30    55 1   
    59    30    56 1   
    60    30    57 1   
    61    31    32 1   
    62    31    58 1   
    63    31    59 1   
    64    32    60 1   
    65    32    61 1   
    66    32    62 1   
@<TRIPOS>SUBSTRUCTURE
     1 RHB         1 TEMP              0 ****  ****    0 ROOT
