@<TRIPOS>MOLECULE
RHB
   63    66     1     0     0
SMALL
bcc


@<TRIPOS>ATOM
      1 O2          -0.2230    -3.9620    -2.8260 o          1 RHB      -0.772300
      2 C26         -0.1670    -3.0800    -1.9570 c          1 RHB       0.894600
      3 C19         -0.1580    -3.5110    -0.5050 cc         1 RHB      -0.091000
      4 C14         -0.0780    -2.5390     0.4880 cc         1 RHB      -0.115000
      5 C15         -0.0670    -2.9040     1.8320 cc         1 RHB      -0.135000
      6 C16         -0.1370    -4.2430     2.1870 cd         1 RHB      -0.144000
      7 C17         -0.2170    -5.2180     1.2010 cd         1 RHB      -0.128000
      8 C18         -0.2260    -4.8500    -0.1350 cc         1 RHB      -0.097000
      9 C9          -0.0020    -1.0940     0.1650 cd         1 RHB       0.344000
     10 C8          -1.1620    -0.3040     0.1820 ca         1 RHB      -0.274300
     11 C13         -2.4700    -0.8230     0.3060 ca         1 RHB       0.032500
     12 C12         -3.5670    -0.0190     0.3000 ca         1 RHB      -0.248500
     13 C11         -3.4450     1.4000     0.1610 ca         1 RHB       0.299600
     14 N1          -4.5300     2.1930     0.1610 nh         1 RHB      -0.661500
     15 C35         -4.4230     3.6430     0.0990 c3         1 RHB       0.217050
     16 C36         -4.3140     4.1710    -1.3240 c3         1 RHB      -0.116600
     17 C22         -5.8830     1.6560     0.2150 c3         1 RHB       0.217050
     18 C23         -6.3670     1.4050     1.6350 c3         1 RHB      -0.116600
     19 C10         -2.1450     1.9300     0.0320 ca         1 RHB      -0.358300
     20 C7          -1.0530     1.0930     0.0440 ca         1 RHB       0.461000
     21 O1           0.1530     1.6740    -0.0850 os         1 RHB      -0.369800
     22 C1           1.2880     0.9550    -0.0290 ca         1 RHB       0.461000
     23 C2           1.2420    -0.4450     0.1110 ca         1 RHB      -0.274300
     24 C6           2.4680     1.6590    -0.0980 ca         1 RHB      -0.358300
     25 C5           3.7030     0.9830    -0.0230 ca         1 RHB       0.299600
     26 C4           3.6670    -0.4410     0.1060 ca         1 RHB      -0.248500
     27 C3           2.4850    -1.1130     0.1660 ca         1 RHB       0.032500
     28 N2           4.8700     1.6480    -0.0690 nh         1 RHB      -0.661500
     29 C24          4.9250     3.0830    -0.3050 c3         1 RHB       0.217050
     30 C25          4.7560     3.9070     0.9630 c3         1 RHB      -0.116600
     31 C33          6.1520     0.9850     0.1200 c3         1 RHB       0.217050
     32 C34          6.7490     0.4620    -1.1780 c3         1 RHB      -0.116600
     33 O3          -0.1150    -1.8430    -2.1310 o          1 RHB      -0.772300
     34 H1          -0.0080    -2.1420     2.5990 ha         1 RHB       0.121000
     35 H2          -0.1310    -4.5210     3.2330 ha         1 RHB       0.126000
     36 H3          -0.2720    -6.2640     1.4760 ha         1 RHB       0.129000
     37 H4          -0.2870    -5.6060    -0.9070 ha         1 RHB       0.164000
     38 H5          -2.6000    -1.8910     0.4150 ha         1 RHB       0.161500
     39 H6          -4.5370    -0.4770     0.4170 ha         1 RHB       0.146000
     40 H7          -5.3110     4.0540     0.5780 h1         1 RHB       0.056075
     41 H8          -3.5800     3.9800     0.7040 h1         1 RHB       0.056075
     42 H9          -4.2640     5.2590    -1.3160 hc         1 RHB       0.047367
     43 H10         -3.4230     3.7980    -1.8290 hc         1 RHB       0.047367
     44 H11         -5.1830     3.8800    -1.9150 hc         1 RHB       0.047367
     45 H12         -6.5360     2.3780    -0.2760 h1         1 RHB       0.056075
     46 H13         -5.9470     0.7490    -0.3850 h1         1 RHB       0.056075
     47 H14         -6.3430     2.3200     2.2270 hc         1 RHB       0.047367
     48 H15         -7.3950     1.0420     1.6200 hc         1 RHB       0.047367
     49 H16         -5.7540     0.6590     2.1420 hc         1 RHB       0.047367
     50 H17         -1.9730     2.9890    -0.0880 ha         1 RHB       0.155000
     51 H18          2.4130     2.7350    -0.1810 ha         1 RHB       0.155000
     52 H19          4.5800    -1.0170     0.1420 ha         1 RHB       0.146000
     53 H20          5.8920     3.2990    -0.7580 h1         1 RHB       0.056075
     54 H21          4.1810     3.3610    -1.0520 h1         1 RHB       0.056075
     55 H22          3.7900     3.7310     1.4350 hc         1 RHB       0.047367
     56 H23          5.5350     3.6760     1.6890 hc         1 RHB       0.047367
     57 H24          4.8260     4.9690     0.7260 hc         1 RHB       0.047367
     58 H25          6.8280     1.7120     0.5730 h1         1 RHB       0.056075
     59 H26          6.0500     0.1840     0.8520 h1         1 RHB       0.056075
     60 H27          6.8930     1.2680    -1.8980 hc         1 RHB       0.047367
     61 H28          7.7210     0.0070    -0.9870 hc         1 RHB       0.047367
     62 H29          6.1090    -0.2910    -1.6380 hc         1 RHB       0.047367
     63 H31          2.4980    -2.1910     0.2530 ha         1 RHB       0.161500
@<TRIPOS>BOND
     1     1     2 1   
     2     2     3 2   
     3     2    33 1   
     4     3     4 1   
     5     3     8 1   
     6     4     5 1   
     7     4     9 2   
     8     5     6 2   
     9     5    34 1   
    10     6     7 1   
    11     6    35 1   
    12     7     8 2   
    13     7    36 1   
    14     8    37 1   
    15     9    10 1   
    16     9    23 1   
    17    10    11 ar  
    18    10    20 ar  
    19    11    12 ar  
    20    11    38 1   
    21    12    13 ar  
    22    12    39 1   
    23    13    14 1   
    24    13    19 ar  
    25    14    15 1   
    26    14    17 1   
    27    15    16 1   
    28    15    40 1   
    29    15    41 1   
    30    16    42 1   
    31    16    43 1   
    32    16    44 1   
    33    17    18 1   
    34    17    45 1   
    35    17    46 1   
    36    18    47 1   
    37    18    48 1   
    38    18    49 1   
    39    19    20 ar  
    40    19    50 1   
    41    20    21 1   
    42    21    22 1   
    43    22    23 ar  
    44    22    24 ar  
    45    23    27 ar  
    46    24    25 ar  
    47    24    51 1   
    48    25    26 ar  
    49    25    28 1   
    50    26    27 ar  
    51    26    52 1   
    52    27    63 1   
    53    28    29 1   
    54    28    31 1   
    55    29    30 1   
    56    29    53 1   
    57    29    54 1   
    58    30    55 1   
    59    30    56 1   
    60    30    57 1   
    61    31    32 1   
    62    31    58 1   
    63    31    59 1   
    64    32    60 1   
    65    32    61 1   
    66    32    62 1   
@<TRIPOS>SUBSTRUCTURE
     1 RHB         1 TEMP              0 ****  ****    0 ROOT
