@<TRIPOS>MOLECULE
RHC
   33    33     1     0     0
SMALL
No Charge or Current Charge


@<TRIPOS>ATOM
      1 C1          -1.0300    -0.2860    -3.9910 c5         1 RHC       0.355300
      2 O1          -2.3470     0.2250    -3.9980 oh         1 RHC      -0.722000
      3 C2           0.0580     0.8320    -4.1070 c5         1 RHC       0.097300
      4 O2           0.2340     1.3650    -5.4380 oh         1 RHC      -0.725000
      5 C3           1.2860     0.0220    -3.6130 c5         1 RHC       0.146300
      6 O3           1.7620    -0.8470    -4.6530 oh         1 RHC      -0.714000
      7 C4           0.6370    -0.7440    -2.4020 c5         1 RHC       0.187300
      8 O4          -0.7780    -0.8980    -2.7250 os         1 RHC      -0.454000
      9 CE           0.7610     0.0130    -1.0540 c3         1 RHC       0.025600
     10 N            1.5640     0.9710     4.5480 n8         1 RHC      -0.988200
     11 CA           0.1080     0.6670     4.2970 c3         1 RHC       0.021500
     12 CB          -0.0420    -0.3120     3.1020 c3         1 RHC      -0.095400
     13 CG           0.4320     0.2610     1.7490 c3         1 RHC       0.066600
     14 SD           0.1180    -0.9540     0.3920 ss         1 RHC      -0.416000
     15 C           -0.7310     0.1590     5.5450 c          1 RHC       0.725000
     16 O           -0.3770    -0.8700     6.1100 o          1 RHC      -0.727500
     17 OXT         -1.6650     0.8480     5.9370 o          1 RHC      -0.727500
     18 HC11        -0.9030    -1.0330    -4.7870 h2         1 RHC       0.047700
     19 HO11        -2.8420    -0.3900    -3.4120 ho         1 RHC       0.520000
     20 HC21        -0.1680     1.6450    -3.4020 h1         1 RHC       0.067700
     21 HO21        -0.6430     1.7330    -5.7090 ho         1 RHC       0.520000
     22 HC31         2.0930     0.6900    -3.2790 h1         1 RHC       0.058700
     23 HO31         1.5980    -0.3350    -5.4830 ho         1 RHC       0.518000
     24 HC41         1.0930    -1.7370    -2.2840 h1         1 RHC       0.097700
     25 HCE1         0.2170     0.9640    -1.1170 h1         1 RHC       0.057200
     26 HCE2         1.8200     0.2400    -0.8720 h1         1 RHC       0.057200
     27 HCA1        -0.3590     1.6130     3.9900 h1         1 RHC       0.042700
     28 HCB1         0.4970    -1.2430     3.3160 hc         1 RHC       0.059700
     29 HCB2        -1.1010    -0.5800     3.0060 hc         1 RHC       0.059700
     30 HCG1        -0.1110     1.1890     1.5280 h1         1 RHC       0.043200
     31 HCG2         1.5060     0.4820     1.7840 h1         1 RHC       0.043200
     32 HN1          2.0220     0.1240     4.9090 hn         1 RHC       0.374500
     33 HN2          2.0370     1.1510     3.6560 hn         1 RHC       0.374500
@<TRIPOS>BOND
     1     1     2 1   
     2     1     3 1   
     3     1     8 1   
     4     1    18 1   
     5     2    19 1   
     6     3     4 1   
     7     3     5 1   
     8     3    20 1   
     9     4    21 1   
    10     5     6 1   
    11     5     7 1   
    12     5    22 1   
    13     6    23 1   
    14     7     8 1   
    15     7     9 1   
    16     7    24 1   
    17     9    14 1   
    18     9    25 1   
    19     9    26 1   
    20    10    11 1   
    21    10    32 1   
    22    10    33 1   
    23    11    12 1   
    24    11    15 1   
    25    11    27 1   
    26    12    13 1   
    27    12    28 1   
    28    12    29 1   
    29    13    14 1   
    30    13    30 1   
    31    13    31 1   
    32    15    16 1   
    33    15    17 1   
@<TRIPOS>SUBSTRUCTURE
     1 RHC         1 TEMP              0 ****  ****    0 ROOT
