@<TRIPOS>MOLECULE
RHC
   33    33     1     0     0
SMALL
abcg2


@<TRIPOS>ATOM
      1 C1          -1.0020    -0.4900    -3.7760 c5         1 RHC       0.355300
      2 O1          -2.2880    -0.0270    -3.5500 oh         1 RHC      -0.722000
      3 C2          -0.0770     0.6860    -4.0980 c5         1 RHC       0.097300
      4 O2           0.0330     0.9920    -5.4580 oh         1 RHC      -0.725000
      5 C3           1.2590     0.2170    -3.5370 c5         1 RHC       0.146300
      6 O3           1.8810    -0.7140    -4.3880 oh         1 RHC      -0.714000
      7 C4           0.7990    -0.5180    -2.2830 c5         1 RHC       0.187300
      8 O4          -0.4560    -1.0960    -2.6220 os         1 RHC      -0.454000
      9 CE           0.6760     0.4030    -1.0790 c3         1 RHC       0.025600
     10 N            1.6790     0.3570     4.5190 n8         1 RHC      -0.988200
     11 CA           0.2760     0.5970     4.2320 c3         1 RHC       0.021500
     12 CB          -0.2510    -0.0800     2.9530 c3         1 RHC      -0.095400
     13 CG           0.4170     0.4410     1.6900 c3         1 RHC       0.066600
     14 SD          -0.2350    -0.4430     0.2430 ss         1 RHC      -0.416000
     15 C           -0.6130     0.1420     5.4130 c          1 RHC       0.725000
     16 O           -0.1360    -0.6980     6.2000 o          1 RHC      -0.727500
     17 OXT         -1.7600     0.6320     5.4520 o          1 RHC      -0.727500
     18 HC11        -0.9940    -1.2240    -4.5930 h2         1 RHC       0.047700
     19 HO11        -2.9110    -0.7560    -3.6310 ho         1 RHC       0.520000
     20 HC21        -0.4150     1.5580    -3.5190 h1         1 RHC       0.067700
     21 HO21        -0.8220     1.2930    -5.7830 ho         1 RHC       0.520000
     22 HC31         1.9250     1.0570    -3.2990 h1         1 RHC       0.058700
     23 HO31         1.9410    -0.3290    -5.2680 ho         1 RHC       0.518000
     24 HC41         1.4910    -1.3270    -2.0300 h1         1 RHC       0.097700
     25 HCE1         0.1780     1.3420    -1.3310 h1         1 RHC       0.057200
     26 HCE2         1.6760     0.6470    -0.7160 h1         1 RHC       0.057200
     27 HCA1         0.1350     1.6770     4.1080 h1         1 RHC       0.042700
     28 HCB1        -0.1010    -1.1630     3.0330 hc         1 RHC       0.059700
     29 HCB2        -1.3280     0.0880     2.8810 hc         1 RHC       0.059700
     30 HCG1         0.2270     1.5110     1.5770 h1         1 RHC       0.043200
     31 HCG2         1.5000     0.2970     1.7220 h1         1 RHC       0.043200
     32 HN1          1.7960    -0.6130     4.7860 hn         1 RHC       0.374500
     33 HN2          2.2460     0.5060     3.6950 hn         1 RHC       0.374500
@<TRIPOS>BOND
     1     1     2 1   
     2     1     3 1   
     3     1     8 1   
     4     1    18 1   
     5     2    19 1   
     6     3     4 1   
     7     3     5 1   
     8     3    20 1   
     9     4    21 1   
    10     5     6 1   
    11     5     7 1   
    12     5    22 1   
    13     6    23 1   
    14     7     8 1   
    15     7     9 1   
    16     7    24 1   
    17     9    14 1   
    18     9    25 1   
    19     9    26 1   
    20    10    11 1   
    21    10    32 1   
    22    10    33 1   
    23    11    12 1   
    24    11    15 1   
    25    11    27 1   
    26    12    13 1   
    27    12    28 1   
    28    12    29 1   
    29    13    14 1   
    30    13    30 1   
    31    13    31 1   
    32    15    16 1   
    33    15    17 1   
@<TRIPOS>SUBSTRUCTURE
     1 RHC         1 TEMP              0 ****  ****    0 ROOT
