@<TRIPOS>MOLECULE
RHG
   34    36     1     0     0
SMALL
No Charge or Current Charge


@<TRIPOS>ATOM
      1 C10          4.6190    -0.9110     0.5520 c3         1 RHG       0.166800
      2 C13          1.7090    -0.5330    -0.2370 c5         1 RHG       0.124000
      3 C05          0.1390     0.5480     1.3610 c5         1 RHG       0.243800
      4 C06          1.6510     0.2370     1.1310 c5         1 RHG      -0.098700
      5 C07          2.4020     1.5790     0.8370 c5         1 RHG      -0.101400
      6 C08          3.2780     1.2070    -0.3860 c5         1 RHG       0.164300
      7 C09          4.6320     0.4940    -0.0920 c3         1 RHG      -0.137400
      8 C12          2.4300    -1.9210    -0.1810 c3         1 RHG       0.164800
      9 C14          0.2040    -0.6060    -0.6630 c5         1 RHG       0.239800
     10 C16         -3.0420    -0.5270     0.1410 c3         1 RHG       0.100000
     11 F17         -4.3710    -0.2710     0.0650 f          1 RHG      -0.106000
     12 F18         -2.7860    -0.9590     1.4000 f          1 RHG      -0.106000
     13 F19         -2.7850    -1.5550    -0.7040 f          1 RHG      -0.106000
     14 N04         -0.3870     0.5910    -0.0160 n3         1 RHG      -0.809500
     15 N11          3.9110    -1.8680    -0.3170 n7         1 RHG      -0.863400
     16 O01         -2.1610     1.2720    -1.7200 o          1 RHG      -0.486000
     17 O03         -2.3580     2.0470     0.6770 o          1 RHG      -0.486000
     18 O15          2.3920     0.3700    -1.1540 os         1 RHG      -0.447000
     19 S02         -2.0510     0.9790    -0.2840 s6         1 RHG       1.222100
     20 H1           5.6660    -1.2280     0.6640 h1         1 RHG       0.051700
     21 H2           4.1920    -0.8780     1.5620 h1         1 RHG       0.051700
     22 H3          -0.3340    -0.2530     1.9460 h1         1 RHG       0.067200
     23 H4          -0.0130     1.4890     1.9080 h1         1 RHG       0.067200
     24 H5           2.0840    -0.3150     1.9720 hc         1 RHG       0.079700
     25 H6           1.7200     2.3950     0.5700 hc         1 RHG       0.060700
     26 H7           2.9960     1.9250     1.6910 hc         1 RHG       0.060700
     27 H8           3.5050     2.1080    -0.9740 h1         1 RHG       0.074700
     28 H9           5.2310     1.1470     0.5550 hc         1 RHG       0.055200
     29 H10          5.1960     0.4290    -1.0300 hc         1 RHG       0.055200
     30 H11          2.1550    -2.4070     0.7660 h1         1 RHG       0.057700
     31 H12          2.0190    -2.5510    -0.9810 h1         1 RHG       0.057700
     32 H13          0.0940    -0.5910    -1.7560 h1         1 RHG       0.076200
     33 H14         -0.2540    -1.5340    -0.2930 h1         1 RHG       0.076200
     34 H15          4.1170    -1.5890    -1.2850 hn         1 RHG       0.428000
@<TRIPOS>BOND
     1     1     7 1   
     2     1    15 1   
     3     1    20 1   
     4     1    21 1   
     5     2     4 1   
     6     2     8 1   
     7     2     9 1   
     8     2    18 1   
     9     3     4 1   
    10     3    14 1   
    11     3    22 1   
    12     3    23 1   
    13     4     5 1   
    14     4    24 1   
    15     5     6 1   
    16     5    25 1   
    17     5    26 1   
    18     6     7 1   
    19     6    18 1   
    20     6    27 1   
    21     7    28 1   
    22     7    29 1   
    23     8    15 1   
    24     8    30 1   
    25     8    31 1   
    26     9    14 1   
    27     9    32 1   
    28     9    33 1   
    29    10    11 1   
    30    10    12 1   
    31    10    13 1   
    32    10    19 1   
    33    14    19 1   
    34    15    34 1   
    35    16    19 2   
    36    17    19 2   
@<TRIPOS>SUBSTRUCTURE
     1 RHG         1 TEMP              0 ****  ****    0 ROOT
