@<TRIPOS>MOLECULE
RHG
   34    36     1     0     0
SMALL
bcc


@<TRIPOS>ATOM
      1 C10          4.7530    -0.7740     0.1430 c3         1 RHG       0.166800
      2 C13          1.6500    -0.4800    -0.1520 c5         1 RHG       0.100800
      3 C05          0.1040     0.9560     1.0270 c5         1 RHG       0.243800
      4 C06          1.3770     0.1310     1.2280 c5         1 RHG      -0.098700
      5 C07          2.6060     0.9950     1.4780 c5         1 RHG      -0.101400
      6 C08          3.1680     1.2400     0.0600 c5         1 RHG       0.141100
      7 C09          4.5850     0.7220    -0.1220 c3         1 RHG      -0.137400
      8 C12          2.5210    -1.7710    -0.1600 c3         1 RHG       0.164800
      9 C14          0.2750    -0.7260    -0.7500 c5         1 RHG       0.239800
     10 C16         -3.1290    -0.5010     0.3240 c3         1 RHG       0.574700
     11 F17         -4.3950    -0.2690     0.0110 f          1 RHG      -0.227300
     12 F18         -2.9680    -0.3420     1.6300 f          1 RHG      -0.227300
     13 F19         -2.8210    -1.7490     0.0000 f          1 RHG      -0.227300
     14 N04         -0.5580     0.2900    -0.1040 n3         1 RHG      -0.809500
     15 N11          3.8840    -1.6560    -0.6140 n7         1 RHG      -0.808200
     16 O01         -2.2100     0.3030    -1.9830 o          1 RHG      -0.556800
     17 O03         -2.3960     1.9760    -0.0930 o          1 RHG      -0.556800
     18 O15          2.2730     0.5820    -0.8390 os         1 RHG      -0.400600
     19 S02         -2.0340     0.6680    -0.5940 s6         1 RHG       1.252900
     20 H1           5.7910    -1.0400    -0.0740 h1         1 RHG       0.051700
     21 H2           4.6090    -0.9970     1.2050 h1         1 RHG       0.051700
     22 H3          -0.5190     0.9540     1.9200 h1         1 RHG       0.067200
     23 H4           0.3300     1.9920     0.7730 h1         1 RHG       0.067200
     24 H5           1.2240    -0.6320     1.9930 hc         1 RHG       0.079700
     25 H6           2.3580     1.9270     1.9850 hc         1 RHG       0.060700
     26 H7           3.3290     0.4760     2.1090 hc         1 RHG       0.060700
     27 H8           3.1420     2.3030    -0.1960 h1         1 RHG       0.074700
     28 H9           5.2530     1.2840     0.5400 hc         1 RHG       0.055200
     29 H10          4.9130     0.9420    -1.1430 hc         1 RHG       0.055200
     30 H11          2.5240    -2.1940     0.8490 h1         1 RHG       0.057700
     31 H12          2.0380    -2.5180    -0.7960 h1         1 RHG       0.057700
     32 H13          0.2780    -0.6240    -1.8350 h1         1 RHG       0.076200
     33 H14         -0.0690    -1.7320    -0.4990 h1         1 RHG       0.076200
     34 H15          3.9090    -1.4150    -1.5960 hn         1 RHG       0.372800
@<TRIPOS>BOND
     1     1     7 1   
     2     1    15 1   
     3     1    20 1   
     4     1    21 1   
     5     2     4 1   
     6     2     8 1   
     7     2     9 1   
     8     2    18 1   
     9     3     4 1   
    10     3    14 1   
    11     3    22 1   
    12     3    23 1   
    13     4     5 1   
    14     4    24 1   
    15     5     6 1   
    16     5    25 1   
    17     5    26 1   
    18     6     7 1   
    19     6    18 1   
    20     6    27 1   
    21     7    28 1   
    22     7    29 1   
    23     8    15 1   
    24     8    30 1   
    25     8    31 1   
    26     9    14 1   
    27     9    32 1   
    28     9    33 1   
    29    10    11 1   
    30    10    12 1   
    31    10    13 1   
    32    10    19 1   
    33    14    19 1   
    34    15    34 1   
    35    16    19 2   
    36    17    19 2   
@<TRIPOS>SUBSTRUCTURE
     1 RHG         1 TEMP              0 ****  ****    0 ROOT
