@<TRIPOS>MOLECULE
RHH
   46    49     1     0     0
SMALL
No Charge or Current Charge


@<TRIPOS>ATOM
      1 C1          -7.4440     1.2500    29.3070 c3         1 RHH      -0.116400
      2 N1          -7.6220    -0.4710    31.0930 nc         1 RHH      -0.571100
      3 O1          -4.1050     0.4060    28.5760 os         1 RHH      -0.460300
      4 C2          -7.1980    -0.1230    29.8660 cd         1 RHH       0.430800
      5 N2          -5.9720    -3.4300    29.8960 nb         1 RHH      -0.666000
      6 C3          -7.1690    -1.7790    31.1770 ca         1 RHH       0.036400
      7 N3          -6.5230    -1.1420    29.1790 na         1 RHH      -0.284300
      8 C4          -7.3170    -2.6540    32.2590 ca         1 RHH      -0.023000
      9 N4          -1.7670     0.1350    28.4360 nb         1 RHH      -0.761000
     10 C5          -6.7670    -3.9420    32.1220 ca         1 RHH      -0.171000
     11 N5          -3.1850    -7.5990    28.5780 nv         1 RHH      -1.055400
     12 C6          -6.0970    -4.3130    30.9200 cp         1 RHH       0.413500
     13 N6          -4.3180    -8.2760    30.3150 nb         1 RHH      -0.808000
     14 C7          -6.5050    -2.2000    30.0430 ca         1 RHH       0.359500
     15 N7          -5.3820    -9.1200    32.0210 nv         1 RHH      -1.055400
     16 C8          -5.8480    -1.1180    27.8670 c3         1 RHH       0.081600
     17 C9          -4.3260    -0.8820    27.9650 c3         1 RHH       0.167600
     18 C10         -2.8350     0.8740    28.8120 ca         1 RHH       0.597300
     19 C11         -2.7090     2.1220    29.4410 ca         1 RHH      -0.179000
     20 C12         -1.4320     2.6410    29.7010 ca         1 RHH      -0.047000
     21 C13         -0.3240     1.8730    29.3110 ca         1 RHH      -0.197000
     22 C14         -0.5360     0.6340    28.6850 ca         1 RHH       0.383900
     23 C15         -5.4850    -5.6810    30.7180 cp         1 RHH      -0.032500
     24 C16         -4.5720    -5.9630    29.6650 ca         1 RHH      -0.255500
     25 C17         -4.0420    -7.2480    29.5350 ca         1 RHH       0.626900
     26 C18         -5.1700    -8.0270    31.2910 ca         1 RHH       0.626900
     27 C19         -5.7750    -6.7940    31.5510 ca         1 RHH      -0.255500
     28 H1          -8.0250     1.8680    30.0020 hc         1 RHH       0.060700
     29 H2          -6.4980     1.7660    29.1110 hc         1 RHH       0.060700
     30 H3          -8.0010     1.1920    28.3650 hc         1 RHH       0.060700
     31 H4          -7.8300    -2.3470    33.1670 ha         1 RHH       0.134000
     32 H5          -6.8510    -4.6410    32.9470 ha         1 RHH       0.128000
     33 H6          -3.0790    -8.5990    28.4640 hn         1 RHH       0.467500
     34 H7          -3.1780    -7.0430    27.7310 hn         1 RHH       0.467500
     35 H8          -4.7080    -9.8590    31.8630 hn         1 RHH       0.467500
     36 H9          -5.6990    -8.9920    32.9750 hn         1 RHH       0.467500
     37 H10         -6.2940    -0.3320    27.2450 h1         1 RHH       0.058200
     38 H11         -6.0260    -2.0770    27.3640 h1         1 RHH       0.058200
     39 H12         -3.8730    -1.6840    28.5620 h1         1 RHH       0.065200
     40 H13         -3.8910    -0.9160    26.9570 h1         1 RHH       0.065200
     41 H14         -3.6000     2.6750    29.7220 ha         1 RHH       0.135000
     42 H15         -1.3050     3.6060    30.1880 ha         1 RHH       0.116000
     43 H16          0.6870     2.2270    29.4880 ha         1 RHH       0.126000
     44 H17          0.3090     0.0200    28.3730 h4         1 RHH       0.017100
     45 H18         -4.2740    -5.1900    28.9640 ha         1 RHH       0.129500
     46 H19         -6.4710    -6.7160    32.3790 ha         1 RHH       0.129500
@<TRIPOS>BOND
     1     1     4 1   
     2     1    28 1   
     3     1    29 1   
     4     1    30 1   
     5     2     4 2   
     6     2     6 1   
     7     3    17 1   
     8     3    18 1   
     9     4     7 1   
    10     5    12 ar  
    11     5    14 ar  
    12     6     8 ar  
    13     6    14 ar  
    14     7    14 1   
    15     7    16 1   
    16     8    10 ar  
    17     8    31 1   
    18     9    18 ar  
    19     9    22 ar  
    20    10    12 ar  
    21    10    32 1   
    22    11    25 1   
    23    11    33 1   
    24    11    34 1   
    25    12    23 1   
    26    13    25 ar  
    27    13    26 ar  
    28    15    26 1   
    29    15    35 1   
    30    15    36 1   
    31    16    17 1   
    32    16    37 1   
    33    16    38 1   
    34    17    39 1   
    35    17    40 1   
    36    18    19 ar  
    37    19    20 ar  
    38    19    41 1   
    39    20    21 ar  
    40    20    42 1   
    41    21    22 ar  
    42    21    43 1   
    43    22    44 1   
    44    23    24 ar  
    45    23    27 ar  
    46    24    25 ar  
    47    24    45 1   
    48    26    27 ar  
    49    27    46 1   
@<TRIPOS>SUBSTRUCTURE
     1 RHH         1 TEMP              0 ****  ****    0 ROOT
