@<TRIPOS>MOLECULE
RHH
   46    49     1     0     0
SMALL
abcg2


@<TRIPOS>ATOM
      1 C1          -8.7300     1.3850    28.9940 c3         1 RHH      -0.116400
      2 N1          -8.6990    -0.4860    30.6030 nc         1 RHH      -0.571100
      3 O1          -4.1980    -0.2290    28.9290 os         1 RHH      -0.460300
      4 C2          -8.1810     0.1390    29.5790 cd         1 RHH       0.430800
      5 N2          -5.9150    -2.5020    29.7500 nb         1 RHH      -0.666000
      6 C3          -7.8930    -1.5730    30.7990 ca         1 RHH       0.036400
      7 N3          -7.0630    -0.4730    29.0750 na         1 RHH      -0.284300
      8 C4          -7.9290    -2.6000    31.7300 ca         1 RHH      -0.023000
      9 N4          -2.5300    -1.6190    28.1990 nb         1 RHH      -0.761000
     10 C5          -6.9290    -3.5540    31.6520 ca         1 RHH      -0.171000
     11 N5          -2.4820    -5.8980    28.1980 nv         1 RHH      -1.055400
     12 C6          -5.9360    -3.4710    30.6630 cp         1 RHH       0.413500
     13 N6          -2.7630    -6.3080    30.4360 nb         1 RHH      -0.808000
     14 C7          -6.8600    -1.5930    29.8460 ca         1 RHH       0.359500
     15 N7          -2.9400    -6.7910    32.6700 nv         1 RHH      -1.055400
     16 C8          -6.3310     0.0190    27.9170 c3         1 RHH       0.081600
     17 C9          -4.9350    -0.5360    27.7580 c3         1 RHH       0.167600
     18 C10         -3.0870    -0.9310    29.1730 ca         1 RHH       0.597300
     19 C11         -2.5740    -0.8840    30.4740 ca         1 RHH      -0.179000
     20 C12         -1.4320    -1.6090    30.7380 ca         1 RHH      -0.047000
     21 C13         -0.8370    -2.3500    29.7180 ca         1 RHH      -0.197000
     22 C14         -1.4280    -2.3180    28.4720 ca         1 RHH       0.383900
     23 C15         -4.8460    -4.4700    30.5880 cp         1 RHH      -0.032500
     24 C16         -4.2180    -4.7230    29.3750 ca         1 RHH      -0.255500
     25 C17         -3.1730    -5.6530    29.3520 ca         1 RHH       0.626900
     26 C18         -3.3690    -6.0630    31.5960 ca         1 RHH       0.626900
     27 C19         -4.4190    -5.1460    31.7260 ca         1 RHH      -0.255500
     28 H1          -9.6420     1.6560    29.5200 hc         1 RHH       0.060700
     29 H2          -8.0250     2.2140    29.0810 hc         1 RHH       0.060700
     30 H3          -8.9630     1.2630    27.9350 hc         1 RHH       0.060700
     31 H4          -8.7030    -2.6590    32.4840 ha         1 RHH       0.134000
     32 H5          -6.9260    -4.3810    32.3490 ha         1 RHH       0.128000
     33 H6          -1.9590    -6.7580    28.1680 hn         1 RHH       0.467500
     34 H7          -2.9340    -5.6620    27.3310 hn         1 RHH       0.467500
     35 H8          -2.0180    -7.1900    32.5930 hn         1 RHH       0.467500
     36 H9          -3.1540    -6.4330    33.5860 hn         1 RHH       0.467500
     37 H10         -6.2840     1.1060    27.9910 h1         1 RHH       0.058200
     38 H11         -6.8840    -0.2190    27.0060 h1         1 RHH       0.058200
     39 H12         -4.9520    -1.6090    27.5790 h1         1 RHH       0.065200
     40 H13         -4.4920    -0.0590    26.8790 h1         1 RHH       0.065200
     41 H14         -3.0710    -0.3060    31.2410 ha         1 RHH       0.135000
     42 H15         -1.0080    -1.6060    31.7340 ha         1 RHH       0.116000
     43 H16          0.0550    -2.9350    29.8890 ha         1 RHH       0.126000
     44 H17         -1.0040    -2.8790    27.6470 h4         1 RHH       0.017100
     45 H18         -4.5210    -4.2130    28.4710 ha         1 RHH       0.129500
     46 H19         -4.8520    -4.9590    32.6990 ha         1 RHH       0.129500
@<TRIPOS>BOND
     1     1     4 1   
     2     1    28 1   
     3     1    29 1   
     4     1    30 1   
     5     2     4 2   
     6     2     6 1   
     7     3    17 1   
     8     3    18 1   
     9     4     7 1   
    10     5    12 ar  
    11     5    14 ar  
    12     6     8 ar  
    13     6    14 ar  
    14     7    14 1   
    15     7    16 1   
    16     8    10 ar  
    17     8    31 1   
    18     9    18 ar  
    19     9    22 ar  
    20    10    12 ar  
    21    10    32 1   
    22    11    25 1   
    23    11    33 1   
    24    11    34 1   
    25    12    23 1   
    26    13    25 ar  
    27    13    26 ar  
    28    15    26 1   
    29    15    35 1   
    30    15    36 1   
    31    16    17 1   
    32    16    37 1   
    33    16    38 1   
    34    17    39 1   
    35    17    40 1   
    36    18    19 ar  
    37    19    20 ar  
    38    19    41 1   
    39    20    21 ar  
    40    20    42 1   
    41    21    22 ar  
    42    21    43 1   
    43    22    44 1   
    44    23    24 ar  
    45    23    27 ar  
    46    24    25 ar  
    47    24    45 1   
    48    26    27 ar  
    49    27    46 1   
@<TRIPOS>SUBSTRUCTURE
     1 RHH         1 TEMP              0 ****  ****    0 ROOT
