@<TRIPOS>MOLECULE
RHI
   56    59     1     0     0
SMALL
abcg2


@<TRIPOS>ATOM
      1 N1         -21.5520     6.6970    30.1580 n3         1 RHI      -0.750600
      2 N3         -16.3080     3.9970    26.7450 nb         1 RHI      -0.652000
      3 C4         -21.7820     4.6840    28.8020 c6         1 RHI      -0.092400
      4 C5         -20.2830     4.4870    28.5780 c          1 RHI       0.608100
      5 C6         -18.5630     4.8260    26.8730 ca         1 RHI      -0.102000
      6 C7         -17.6170     3.8510    27.0680 ca         1 RHI       0.361900
      7 C8         -15.9250     5.1310    26.2070 ca         1 RHI       0.371900
      8 C10        -16.3440     7.4360    25.4240 ca         1 RHI       0.034000
      9 C13        -19.0560     7.1550    26.1040 ca         1 RHI      -0.119000
     10 C15        -16.2420    10.9310    26.1320 c3         1 RHI      -0.338100
     11 C17        -22.4510     2.6040    30.0320 ca         1 RHI      -0.089000
     12 C20        -22.9770     4.0310    32.3470 ca         1 RHI      -0.099000
     13 C21        -22.5260     4.7100    31.2150 ca         1 RHI      -0.060300
     14 C22        -22.3600     6.2090    31.2650 c6         1 RHI       0.226100
     15 C18        -22.8980     1.9570    31.1700 ca         1 RHI       0.126000
     16 C19        -23.1670     2.6580    32.3390 ca         1 RHI      -0.090000
     17 C2         -21.3260     8.1290    30.1640 c3         1 RHI       0.089800
     18 C1         -19.9470     8.5410    29.6540 c          1 RHI       0.583100
     19 O          -19.7210     9.7140    29.3400 o          1 RHI      -0.630100
     20 N          -19.0260     7.5720    29.6250 ns         1 RHI      -0.493900
     21 C          -17.6390     7.8060    29.2710 c3         1 RHI       0.097300
     22 C16        -22.2640     3.9870    30.0490 ca         1 RHI      -0.051300
     23 C3         -22.0580     6.1930    28.8910 c6         1 RHI       0.175800
     24 O1         -19.4860     4.3010    29.4860 o          1 RHI      -0.559100
     25 N2         -19.9040     4.6250    27.2740 ns         1 RHI      -0.166000
     26 C14        -18.1740     6.0670    26.3040 ca         1 RHI       0.013000
     27 C9         -16.8030     6.2140    25.9590 ca         1 RHI      -0.123000
     28 C12        -18.5920     8.3380    25.5980 ca         1 RHI      -0.009000
     29 C11        -17.2280     8.4690    25.2560 ca         1 RHI      -0.275500
     30 S          -16.6360    10.0320    24.6510 sy         1 RHI       1.080500
     31 O2         -17.7330    10.7050    23.9790 o          1 RHI      -0.527500
     32 O3         -15.4130     9.8000    23.9070 o          1 RHI      -0.527500
     33 H2         -22.3140     4.2860    27.9340 hc         1 RHI       0.070700
     34 H3         -17.9040     2.9040    27.5070 h4         1 RHI       0.040100
     35 H4         -14.8760     5.2360    25.9490 h4         1 RHI       0.029100
     36 H5         -15.3000     7.5480    25.1620 ha         1 RHI       0.142000
     37 H6         -20.0990     7.0630    26.3680 ha         1 RHI       0.116000
     38 H7         -15.4510    10.3990    26.6560 h1         1 RHI       0.106700
     39 H8         -15.9070    11.9190    25.8170 h1         1 RHI       0.106700
     40 H9         -17.1400    11.0000    26.7440 h1         1 RHI       0.106700
     41 H10        -22.2500     2.0420    29.1290 ha         1 RHI       0.129000
     42 H11        -23.1820     4.5880    33.2540 ha         1 RHI       0.119000
     43 H12        -21.8820     6.4930    32.2030 h1         1 RHI       0.049700
     44 H13        -23.3630     6.6730    31.2610 h1         1 RHI       0.049700
     45 H14        -23.5150     2.1400    33.2220 ha         1 RHI       0.134000
     46 H15        -22.0720     8.6860    29.5820 h1         1 RHI       0.066700
     47 H16        -21.3870     8.4960    31.1910 h1         1 RHI       0.066700
     48 H17        -19.3250     6.6520    29.9210 hn         1 RHI       0.352500
     49 H18        -17.1590     6.8460    29.0960 h1         1 RHI       0.039367
     50 H19        -17.5750     8.4060    28.3640 h1         1 RHI       0.039367
     51 H20        -17.1070     8.3290    30.0690 h1         1 RHI       0.039367
     52 H21        -21.5680     6.7190    28.0740 h1         1 RHI       0.045700
     53 H22        -23.1410     6.3670    28.7910 h1         1 RHI       0.045700
     54 H23        -20.6250     4.8490    26.6040 hn         1 RHI       0.153000
     55 H24        -19.2630     9.1740    25.4600 ha         1 RHI       0.143000
     56 CL         -23.1310     0.2190    31.1360 cl         1 RHI      -0.206000
@<TRIPOS>BOND
     1     1    14 1   
     2     1    17 1   
     3     1    23 1   
     4     2     6 ar  
     5     2     7 ar  
     6     3     4 1   
     7     3    22 1   
     8     3    23 1   
     9     3    33 1   
    10     4    24 2   
    11     4    25 1   
    12     5     6 ar  
    13     5    25 1   
    14     5    26 ar  
    15     6    34 1   
    16     7    27 ar  
    17     7    35 1   
    18     8    27 ar  
    19     8    29 ar  
    20     8    36 1   
    21     9    26 ar  
    22     9    28 ar  
    23     9    37 1   
    24    10    30 1   
    25    10    38 1   
    26    10    39 1   
    27    10    40 1   
    28    11    15 ar  
    29    11    22 ar  
    30    11    41 1   
    31    12    13 ar  
    32    12    16 ar  
    33    12    42 1   
    34    13    14 1   
    35    13    22 ar  
    36    14    43 1   
    37    14    44 1   
    38    15    16 ar  
    39    15    56 1   
    40    16    45 1   
    41    17    18 1   
    42    17    46 1   
    43    17    47 1   
    44    18    19 2   
    45    18    20 1   
    46    20    21 1   
    47    20    48 1   
    48    21    49 1   
    49    21    50 1   
    50    21    51 1   
    51    23    52 1   
    52    23    53 1   
    53    25    54 1   
    54    26    27 ar  
    55    28    29 ar  
    56    28    55 1   
    57    29    30 1   
    58    30    31 2   
    59    30    32 2   
@<TRIPOS>SUBSTRUCTURE
     1 RHI         1 TEMP              0 ****  ****    0 ROOT
