@<TRIPOS>MOLECULE
RHI
   56    59     1     0     0
SMALL
No Charge or Current Charge


@<TRIPOS>ATOM
      1 N1         -21.5780     6.5080    30.6860 n3         1 RHI      -0.750600
      2 N3         -16.1270     4.1830    27.1590 nb         1 RHI      -0.652000
      3 C4         -21.8010     4.7360    28.9770 c6         1 RHI      -0.092400
      4 C5         -20.2960     4.4430    28.7790 c          1 RHI       0.608100
      5 C6         -18.3520     5.1830    27.2670 ca         1 RHI      -0.102000
      6 C7         -17.4110     4.1730    27.5870 ca         1 RHI       0.361900
      7 C8         -15.7280     5.2160    26.3870 ca         1 RHI       0.371900
      8 C10        -16.1030     7.3150    25.2010 ca         1 RHI       0.034000
      9 C13        -18.7820     7.3090    26.0660 ca         1 RHI      -0.119000
     10 C15        -15.7800    10.9070    25.0220 c3         1 RHI      -0.338100
     11 C17        -22.7300     2.4750    29.7170 ca         1 RHI      -0.089000
     12 C20        -23.2920     3.4700    32.2850 ca         1 RHI      -0.099000
     13 C21        -22.7210     4.3200    31.3180 ca         1 RHI      -0.060300
     14 C22        -22.4450     5.7920    31.6660 c6         1 RHI       0.226100
     15 C18        -23.2960     1.6350    30.6890 ca         1 RHI       0.126000
     16 C19        -23.5770     2.1300    31.9720 ca         1 RHI      -0.090000
     17 C2         -21.4400     7.9710    30.9930 c3         1 RHI       0.089800
     18 C1         -20.3440     8.7460    30.2100 c          1 RHI       0.583100
     19 O          -20.4850     9.8920    29.7990 o          1 RHI      -0.630100
     20 N          -19.1900     8.0270    29.9960 ns         1 RHI      -0.493900
     21 C          -18.0130     8.5170    29.2770 c3         1 RHI       0.097300
     22 C16        -22.4400     3.8180    30.0260 ca         1 RHI      -0.051300
     23 C3         -22.0200     6.2320    29.2980 c6         1 RHI       0.175800
     24 O1         -19.6810     3.6600    29.4950 o          1 RHI      -0.559100
     25 N2         -19.6980     5.1480    27.7400 ns         1 RHI      -0.166000
     26 C14        -17.9230     6.2530    26.4460 ca         1 RHI       0.013000
     27 C9         -16.5830     6.2650    26.0070 ca         1 RHI      -0.123000
     28 C12        -18.3050     8.3590    25.2630 ca         1 RHI      -0.009000
     29 C11        -16.9650     8.3650    24.8270 ca         1 RHI      -0.275500
     30 S          -16.3490     9.7190    23.8090 sy         1 RHI       1.080500
     31 O2         -17.4810    10.3420    23.1110 o          1 RHI      -0.527500
     32 O3         -15.1600     9.2620    23.0790 o          1 RHI      -0.527500
     33 H2         -22.2680     4.6130    27.9900 hc         1 RHI       0.070700
     34 H3         -17.6820     3.3090    28.1900 h4         1 RHI       0.040100
     35 H4         -14.6880     5.1980    26.0620 h4         1 RHI       0.029100
     36 H5         -15.0640     7.3120    24.8730 ha         1 RHI       0.142000
     37 H6         -19.8180     7.3380    26.3900 ha         1 RHI       0.116000
     38 H7         -14.9990    10.4330    25.6240 h1         1 RHI       0.106700
     39 H8         -15.3840    11.7760    24.4870 h1         1 RHI       0.106700
     40 H9         -16.6330    11.1910    25.6470 h1         1 RHI       0.106700
     41 H10        -22.5130     2.0810    28.7280 ha         1 RHI       0.129000
     42 H11        -23.5190     3.8500    33.2790 ha         1 RHI       0.119000
     43 H12        -21.9870     5.8340    32.6650 h1         1 RHI       0.049700
     44 H13        -23.4170     6.3020    31.7440 h1         1 RHI       0.049700
     45 H14        -24.0170     1.4760    32.7210 ha         1 RHI       0.134000
     46 H15        -22.3930     8.4900    30.8230 h1         1 RHI       0.066700
     47 H16        -21.1870     8.0980    32.0530 h1         1 RHI       0.066700
     48 H17        -19.1960     7.0790    30.3580 hn         1 RHI       0.352500
     49 H18        -17.3410     7.6780    29.0580 h1         1 RHI       0.039367
     50 H19        -18.3220     8.9880    28.3340 h1         1 RHI       0.039367
     51 H20        -17.4850     9.2540    29.8950 h1         1 RHI       0.039367
     52 H21        -21.4780     6.8580    28.5750 h1         1 RHI       0.045700
     53 H22        -23.0880     6.4760    29.1860 h1         1 RHI       0.045700
     54 H23        -20.3260     5.7630    27.2400 hn         1 RHI       0.153000
     55 H24        -18.9830     9.1660    24.9870 ha         1 RHI       0.143000
     56 Cl         -23.6530    -0.0430    30.2970 cl         1 RHI      -0.206000
@<TRIPOS>BOND
     1     1    14 1   
     2     1    17 1   
     3     1    23 1   
     4     2     6 ar  
     5     2     7 ar  
     6     3     4 1   
     7     3    22 1   
     8     3    23 1   
     9     3    33 1   
    10     4    24 2   
    11     4    25 1   
    12     5     6 ar  
    13     5    25 1   
    14     5    26 ar  
    15     6    34 1   
    16     7    27 ar  
    17     7    35 1   
    18     8    27 ar  
    19     8    29 ar  
    20     8    36 1   
    21     9    26 ar  
    22     9    28 ar  
    23     9    37 1   
    24    10    30 1   
    25    10    38 1   
    26    10    39 1   
    27    10    40 1   
    28    11    15 ar  
    29    11    22 ar  
    30    11    41 1   
    31    12    13 ar  
    32    12    16 ar  
    33    12    42 1   
    34    13    14 1   
    35    13    22 ar  
    36    14    43 1   
    37    14    44 1   
    38    15    16 ar  
    39    15    56 1   
    40    16    45 1   
    41    17    18 1   
    42    17    46 1   
    43    17    47 1   
    44    18    19 2   
    45    18    20 1   
    46    20    21 1   
    47    20    48 1   
    48    21    49 1   
    49    21    50 1   
    50    21    51 1   
    51    23    52 1   
    52    23    53 1   
    53    25    54 1   
    54    26    27 ar  
    55    28    29 ar  
    56    28    55 1   
    57    29    30 1   
    58    30    31 2   
    59    30    32 2   
@<TRIPOS>SUBSTRUCTURE
     1 RHI         1 TEMP              0 ****  ****    0 ROOT
