@<TRIPOS>MOLECULE
RHJ
   40    43     1     0     0
SMALL
No Charge or Current Charge


@<TRIPOS>ATOM
      1 C10         28.5590    46.4780   -11.6240 c5         1 RHJ       0.153000
      2 C17         25.5720    43.8920    -9.0220 cy         1 RHJ      -0.075400
      3 C02         30.6360    47.9700   -12.1270 c6         1 RHJ       0.152300
      4 C03         31.3440    46.6070   -12.3610 c6         1 RHJ      -0.095400
      5 C04         30.3460    45.4370   -12.6060 c5         1 RHJ       0.155300
      6 C05         29.3540    45.6570   -13.7970 c5         1 RHJ      -0.087400
      7 C06         28.0830    46.2660   -13.0880 c5         1 RHJ      -0.087700
      8 C07         27.0250    45.1230   -12.9630 c5         1 RHJ       0.111000
      9 C09         27.2790    46.2250   -10.7680 c5         1 RHJ       0.119000
     10 C12         29.3340    47.8040   -11.2800 c6         1 RHJ       0.121300
     11 C16         24.8420    45.1130    -9.7020 cy         1 RHJ      -0.167700
     12 C18         24.2330    43.7510    -8.2140 cy         1 RHJ      -0.093400
     13 C19         23.5160    44.2710    -9.5100 cy         1 RHJ      -0.075400
     14 N08         26.4330    45.3610   -11.6310 n          1 RHJ      -0.409800
     15 O01         30.3150    48.6070   -13.3670 oh         1 RHJ      -0.663000
     16 O11         29.4610    45.3620   -11.4700 os         1 RHJ      -0.450000
     17 O13         28.5040    48.9810   -11.4330 oh         1 RHJ      -0.727000
     18 O15         24.6740    44.0310   -12.0420 o          1 RHJ      -0.615100
     19 H2          26.4570    44.1330    -8.4240 hc         1 RHJ       0.060200
     20 H3          31.3260    48.6190   -11.5690 h1         1 RHJ       0.034700
     21 H5          31.9500    46.3640   -11.4780 hc         1 RHJ       0.064200
     22 H6          32.0490    46.6830   -13.1990 hc         1 RHJ       0.064200
     23 H7          30.9060    44.4970   -12.7030 h1         1 RHJ       0.081700
     24 H8          29.7700    46.3290   -14.5560 hc         1 RHJ       0.063700
     25 H9          29.1450    44.7170   -14.3200 hc         1 RHJ       0.063700
     26 H10         27.6820    47.1730   -13.5540 hc         1 RHJ       0.083700
     27 H11         26.2800    45.1790   -13.7680 h1         1 RHJ       0.059200
     28 H12         27.4770    44.1210   -12.9860 h1         1 RHJ       0.059200
     29 H13         27.5350    45.7450    -9.8150 h1         1 RHJ       0.062700
     30 H14         26.7580    47.1660   -10.5480 h1         1 RHJ       0.062700
     31 H15         29.6440    47.7140   -10.2270 h1         1 RHJ       0.052700
     32 H17         24.9360    46.1370    -9.3240 hc         1 RHJ       0.062700
     33 H18         23.9710    42.7360    -7.8960 hc         1 RHJ       0.049700
     34 H19         24.1510    44.4180    -7.3470 hc         1 RHJ       0.049700
     35 H20         22.6060    44.8560    -9.3400 hc         1 RHJ       0.060200
     36 H21         23.2730    43.4590   -10.2050 hc         1 RHJ       0.060200
     37 H22         29.4620    49.0590   -13.1620 ho         1 RHJ       0.457000
     38 H23         28.7370    49.6010   -10.7000 ho         1 RHJ       0.510000
     39 C14         25.2360    44.7330   -11.2060 c          1 RHJ       0.617100
     40 H1          25.8040    43.0150    -9.6420 hc         1 RHJ       0.060200
@<TRIPOS>BOND
     1     1     7 1   
     2     1     9 1   
     3     1    10 1   
     4     1    16 1   
     5     2    11 1   
     6     2    12 1   
     7     2    19 1   
     8     2    40 1   
     9     3     4 1   
    10     3    10 1   
    11     3    15 1   
    12     3    20 1   
    13     4     5 1   
    14     4    21 1   
    15     4    22 1   
    16     5     6 1   
    17     5    16 1   
    18     5    23 1   
    19     6     7 1   
    20     6    24 1   
    21     6    25 1   
    22     7     8 1   
    23     7    26 1   
    24     8    14 1   
    25     8    27 1   
    26     8    28 1   
    27     9    14 1   
    28     9    29 1   
    29     9    30 1   
    30    10    17 1   
    31    10    31 1   
    32    11    13 1   
    33    11    32 1   
    34    11    39 1   
    35    12    13 1   
    36    12    33 1   
    37    12    34 1   
    38    13    35 1   
    39    13    36 1   
    40    14    39 1   
    41    15    37 1   
    42    17    38 1   
    43    18    39 2   
@<TRIPOS>SUBSTRUCTURE
     1 RHJ         1 TEMP              0 ****  ****    0 ROOT
