@<TRIPOS>MOLECULE
RHJ
   40    43     1     0     0
SMALL
abcg2


@<TRIPOS>ATOM
      1 C10         28.4500    46.5450   -11.6370 c5         1 RHJ       0.153000
      2 C17         25.7830    43.9200    -8.9400 cy         1 RHJ      -0.075400
      3 C02         30.5990    47.8540   -12.0700 c6         1 RHJ       0.152300
      4 C03         31.2540    46.4760   -12.1650 c6         1 RHJ      -0.095400
      5 C04         30.2360    45.3580   -12.3720 c5         1 RHJ       0.155300
      6 C05         29.3530    45.4920   -13.6260 c5         1 RHJ      -0.087400
      7 C06         28.1370    46.3090   -13.1330 c5         1 RHJ      -0.087700
      8 C07         26.7890    45.5630   -13.1390 c5         1 RHJ       0.111000
      9 C09         27.1360    46.4240   -10.8940 c5         1 RHJ       0.119000
     10 C12         29.2530    47.8070   -11.3110 c6         1 RHJ       0.121300
     11 C16         24.9380    44.8320    -9.8850 cy         1 RHJ      -0.167700
     12 C18         24.4760    43.5650    -8.1910 cy         1 RHJ      -0.093400
     13 C19         23.6770    44.0740    -9.4160 cy         1 RHJ      -0.075400
     14 N08         26.3390    45.5420   -11.7430 n          1 RHJ      -0.409800
     15 O01         30.4070    48.3650   -13.3910 oh         1 RHJ      -0.663000
     16 O11         29.2860    45.4280   -11.2890 os         1 RHJ      -0.450000
     17 O13         28.4760    48.9650   -11.6340 oh         1 RHJ      -0.727000
     18 O15         24.6440    44.1210   -12.1660 o          1 RHJ      -0.615100
     19 H2          26.5840    44.3940    -8.3750 hc         1 RHJ       0.060200
     20 H3          31.2650    48.5350   -11.5250 h1         1 RHJ       0.034700
     21 H5          31.7890    46.2730   -11.2350 hc         1 RHJ       0.064200
     22 H6          31.9920    46.4890   -12.9710 hc         1 RHJ       0.064200
     23 H7          30.7240    44.3860   -12.3090 h1         1 RHJ       0.081700
     24 H8          29.8780    45.9820   -14.4420 hc         1 RHJ       0.063700
     25 H9          29.0400    44.5050   -13.9630 hc         1 RHJ       0.063700
     26 H10         28.0460    47.2490   -13.6680 hc         1 RHJ       0.083700
     27 H11         26.0520    46.0710   -13.7660 h1         1 RHJ       0.059200
     28 H12         26.8800    44.5400   -13.5040 h1         1 RHJ       0.059200
     29 H13         27.2910    46.0030    -9.9040 h1         1 RHJ       0.062700
     30 H14         26.6670    47.4060   -10.7940 h1         1 RHJ       0.062700
     31 H15         29.4620    47.7840   -10.2380 h1         1 RHJ       0.052700
     32 H17         24.9390    45.8580    -9.5150 hc         1 RHJ       0.062700
     33 H18         24.3360    42.5250    -7.8980 hc         1 RHJ       0.049700
     34 H19         24.3310    44.2020    -7.3180 hc         1 RHJ       0.049700
     35 H20         22.7830    44.6680    -9.2310 hc         1 RHJ       0.060200
     36 H21         23.4360    43.2680   -10.1080 hc         1 RHJ       0.060200
     37 H22         29.7300    49.0540   -13.3160 ho         1 RHJ       0.457000
     38 H23         28.7420    49.6880   -11.0530 ho         1 RHJ       0.510000
     39 C14         25.2800    44.8080   -11.3560 c          1 RHJ       0.617100
     40 H1          26.1860    43.0640    -9.4830 hc         1 RHJ       0.060200
@<TRIPOS>BOND
     1     1     7 1   
     2     1     9 1   
     3     1    10 1   
     4     1    16 1   
     5     2    11 1   
     6     2    12 1   
     7     2    19 1   
     8     2    40 1   
     9     3     4 1   
    10     3    10 1   
    11     3    15 1   
    12     3    20 1   
    13     4     5 1   
    14     4    21 1   
    15     4    22 1   
    16     5     6 1   
    17     5    16 1   
    18     5    23 1   
    19     6     7 1   
    20     6    24 1   
    21     6    25 1   
    22     7     8 1   
    23     7    26 1   
    24     8    14 1   
    25     8    27 1   
    26     8    28 1   
    27     9    14 1   
    28     9    29 1   
    29     9    30 1   
    30    10    17 1   
    31    10    31 1   
    32    11    13 1   
    33    11    32 1   
    34    11    39 1   
    35    12    13 1   
    36    12    33 1   
    37    12    34 1   
    38    13    35 1   
    39    13    36 1   
    40    14    39 1   
    41    15    37 1   
    42    17    38 1   
    43    18    39 2   
@<TRIPOS>SUBSTRUCTURE
     1 RHJ         1 TEMP              0 ****  ****    0 ROOT
