@<TRIPOS>MOLECULE
RHN
   28    30     1     0     0
SMALL
bcc


@<TRIPOS>ATOM
      1 OAA         -4.6200     1.8890    -0.1790 o          1 RHN      -0.809300
      2 OAB          0.2080     2.8250     0.0630 o          1 RHN      -0.524100
      3 OAC          1.2500    -2.4310     0.0150 o          1 RHN      -0.580100
      4 OAD         -5.3360    -0.2240    -0.2320 o          1 RHN      -0.809300
      5 OAE          3.7920    -1.9430     0.1390 oh         1 RHN      -0.453100
      6 OAF         -1.2230    -2.9700    -0.1130 oh         1 RHN      -0.519100
      7 CAG          4.1770     1.6610     0.2310 ca         1 RHN      -0.080000
      8 CAH          4.4860     0.3180     0.2170 ca         1 RHN      -0.242000
      9 CAI          2.8530     2.0780     0.1770 ca         1 RHN      -0.139000
     10 CAJ         -2.7290    -1.1850    -0.1480 ca         1 RHN      -0.145000
     11 CAK         -1.9570     1.0830    -0.0720 ca         1 RHN      -0.076000
     12 CAL         -4.4590     0.6560    -0.1880 c          1 RHN       0.923200
     13 CAM         -3.0100     0.1670    -0.1360 ca         1 RHN      -0.087600
     14 CAN          3.4770    -0.6480     0.1490 ca         1 RHN       0.179100
     15 CAO         -1.4120    -1.6540    -0.0980 ca         1 RHN       0.192100
     16 CAP          0.4420     1.6330     0.0510 c          1 RHN       0.587300
     17 CAQ          1.0320    -1.2210     0.0250 c          1 RHN       0.617300
     18 CAR          1.8420     1.1360     0.1080 ca         1 RHN      -0.079600
     19 CAS         -0.6500     0.6400    -0.0200 ca         1 RHN      -0.137600
     20 CAT          2.1300    -0.2430     0.0940 ca         1 RHN      -0.157600
     21 CAU         -0.3490    -0.7330    -0.0310 ca         1 RHN      -0.289600
     22 HOAE         4.7500    -2.0470     0.1890 ho         1 RHN       0.417000
     23 HOAF        -0.2510    -3.1230    -0.0680 ho         1 RHN       0.464000
     24 HAG          4.9730     2.3910     0.2850 ha         1 RHN       0.127000
     25 HAH          5.5220     0.0020     0.2600 ha         1 RHN       0.124000
     26 HAI          2.6170     3.1320     0.1880 ha         1 RHN       0.157000
     27 HAJ         -3.5360    -1.9040    -0.1970 ha         1 RHN       0.169000
     28 HAK         -2.1700     2.1420    -0.0630 ha         1 RHN       0.174000
@<TRIPOS>BOND
     1     1    12 1   
     2     2    16 2   
     3     3    17 2   
     4     4    12 1   
     5     5    14 1   
     6     5    22 1   
     7     6    15 1   
     8     6    23 1   
     9     7     8 ar  
    10     7     9 ar  
    11     7    24 1   
    12     8    14 ar  
    13     8    25 1   
    14     9    18 ar  
    15     9    26 1   
    16    10    13 ar  
    17    10    15 ar  
    18    10    27 1   
    19    11    13 ar  
    20    11    19 ar  
    21    11    28 1   
    22    12    13 1   
    23    14    20 ar  
    24    15    21 ar  
    25    16    18 1   
    26    16    19 1   
    27    17    20 1   
    28    17    21 1   
    29    18    20 ar  
    30    19    21 ar  
@<TRIPOS>SUBSTRUCTURE
     1 RHN         1 TEMP              0 ****  ****    0 ROOT
