@<TRIPOS>MOLECULE
RHN
   28    30     1     0     0
SMALL
No Charge or Current Charge


@<TRIPOS>ATOM
      1 OAA         -4.7250     1.8820    -0.1810 o          1 RHN      -0.704000
      2 OAB          0.1930     2.8450     0.0660 o          1 RHN      -0.524100
      3 OAC          1.2450    -2.4780     0.0130 o          1 RHN      -0.580100
      4 OAD         -5.4320    -0.1450    -0.2530 o          1 RHN      -0.704000
      5 OAE          3.9260    -1.9500     0.1470 oh         1 RHN      -0.492100
      6 OAF         -1.2820    -3.0160    -0.1150 oh         1 RHN      -0.558100
      7 CAG          4.2520     1.6810     0.2320 ca         1 RHN      -0.062000
      8 CAH          4.5590     0.3180     0.2200 ca         1 RHN      -0.224000
      9 CAI          2.9160     2.0880     0.1780 ca         1 RHN      -0.121000
     10 CAJ         -2.8050    -1.2080    -0.1510 ca         1 RHN      -0.127000
     11 CAK         -2.0100     1.0750    -0.0700 ca         1 RHN      -0.058000
     12 CAL         -4.5260     0.6750    -0.1950 c          1 RHN       0.712600
     13 CAM         -3.0910     0.1720    -0.1380 ca         1 RHN      -0.087600
     14 CAN          3.5380    -0.6430     0.1540 ca         1 RHN       0.179100
     15 CAO         -1.4850    -1.6710    -0.0990 ca         1 RHN       0.192100
     16 CAP          0.4420     1.6430     0.0540 c          1 RHN       0.587300
     17 CAQ          1.0400    -1.2680     0.0260 c          1 RHN       0.617300
     18 CAR          1.8670     1.1410     0.1110 ca         1 RHN      -0.079600
     19 CAS         -0.6700     0.6230    -0.0170 ca         1 RHN      -0.137600
     20 CAT          2.1700    -0.2500     0.0980 ca         1 RHN      -0.157600
     21 CAU         -0.3940    -0.7690    -0.0310 ca         1 RHN      -0.289600
     22 HOAE         4.9040    -1.9800     0.1920 ho         1 RHN       0.456000
     23 HOAF        -0.2980    -3.1360    -0.0720 ho         1 RHN       0.503000
     24 HAG          5.0470     2.4220     0.2830 ha         1 RHN       0.109000
     25 HAH          5.6020     0.0120     0.2630 ha         1 RHN       0.106000
     26 HAI          2.6970     3.1550     0.1880 ha         1 RHN       0.139000
     27 HAJ         -3.6130    -1.9330    -0.2020 ha         1 RHN       0.151000
     28 HAK         -2.2170     2.1440    -0.0590 ha         1 RHN       0.156000
@<TRIPOS>BOND
     1     1    12 1   
     2     2    16 2   
     3     3    17 2   
     4     4    12 1   
     5     5    14 1   
     6     5    22 1   
     7     6    15 1   
     8     6    23 1   
     9     7     8 ar  
    10     7     9 ar  
    11     7    24 1   
    12     8    14 ar  
    13     8    25 1   
    14     9    18 ar  
    15     9    26 1   
    16    10    13 ar  
    17    10    15 ar  
    18    10    27 1   
    19    11    13 ar  
    20    11    19 ar  
    21    11    28 1   
    22    12    13 1   
    23    14    20 ar  
    24    15    21 ar  
    25    16    18 1   
    26    16    19 1   
    27    17    20 1   
    28    17    21 1   
    29    18    20 ar  
    30    19    21 ar  
@<TRIPOS>SUBSTRUCTURE
     1 RHN         1 TEMP              0 ****  ****    0 ROOT
