@<TRIPOS>MOLECULE
RHO
   60    64     1     0     0
SMALL
bcc


@<TRIPOS>ATOM
      1 C           -1.8760    -1.6130    -0.3880 ca         1 RHO       0.220600
      2 C1          -2.6400    -0.6450     0.2910 ca         1 RHO      -0.318300
      3 C2          -3.4320    -1.0130     1.3620 ca         1 RHO       0.407000
      4 C3          -3.5270    -2.3270     1.8170 ca         1 RHO      -0.180300
      5 C4          -2.7680    -3.2780     1.1350 ca         1 RHO      -0.012000
      6 C5          -1.9660    -2.9480     0.0630 ca         1 RHO      -0.242000
      7 N           -1.0780    -1.2680    -1.4380 nh         1 RHO      -0.699000
      8 C6          -1.1010     0.0840    -1.9450 c3         1 RHO       0.227600
      9 C7          -0.3800    -2.2910    -2.1800 c3         1 RHO       0.227600
     10 OH1         -4.1280    -0.0210     1.9660 os         1 RHO      -0.414800
     11 C8          -4.4070    -2.6120     2.9270 cc         1 RHO       0.101000
     12 C9          -4.9300    -0.2580     3.0400 cd         1 RHO       0.335700
     13 C10         -5.5350     0.8030     3.6070 ce         1 RHO      -0.238000
     14 C11         -6.4040     0.6320     4.7680 ce         1 RHO       0.147000
     15 C12         -6.6520    -0.5990     5.2470 c2         1 RHO      -0.248200
     16 C13         -6.0890    -1.8440     4.6270 c6         1 RHO       0.036100
     17 C14         -5.1090    -1.6120     3.5030 cd         1 RHO      -0.205600
     18 N1          -6.9810     1.8060     5.2730 nh         1 RHO      -0.637400
     19 C15         -6.0560     2.8620     5.6430 c3         1 RHO       0.181100
     20 C16         -8.0250     1.6420     6.2540 c3         1 RHO       0.181100
     21 C17         -4.6490    -4.0250     3.3100 ca         1 RHO      -0.029000
     22 C18         -3.8740    -4.7350     4.2310 ca         1 RHO      -0.111600
     23 C19         -4.2190    -6.0520     4.5220 ca         1 RHO      -0.090000
     24 C20         -5.2900    -6.6670     3.8990 ca         1 RHO       0.012600
     25 C21         -6.0540    -5.9710     2.9740 ca         1 RHO      -0.143000
     26 C22         -5.7330    -4.6540     2.6960 ca         1 RHO      -0.141000
     27 C23         -2.6680    -4.1210     4.9390 c          1 RHO       0.921200
     28 OH2         -2.1240    -4.8230     5.8120 o          1 RHO      -0.807300
     29 OH3         -2.3360    -2.9800     4.5780 o          1 RHO      -0.807300
     30 N2          -5.6110    -8.0090     4.2100 n          1 RHO      -0.435600
     31 C24         -4.8030    -9.1040     3.9360 c          1 RHO       0.699200
     32 OH4         -3.7310    -9.0650     3.3940 o          1 RHO      -0.543500
     33 C25         -5.5370   -10.2990     4.4420 cc         1 RHO      -0.193200
     34 C26         -6.6870    -9.8990     4.9680 cd         1 RHO      -0.193200
     35 C27         -6.7780    -8.4160     4.8420 c          1 RHO       0.699200
     36 OH5         -7.6650    -7.6910     5.2060 o          1 RHO      -0.543500
     37 HC1         -2.6270     0.3950    -0.0030 ha         1 RHO       0.135000
     38 HC4         -2.8120    -4.3130     1.4500 ha         1 RHO       0.148000
     39 HC5         -1.4080    -3.7340    -0.4240 ha         1 RHO       0.125000
     40 HC61        -0.4020     0.1700    -2.7720 h1         1 RHO       0.029200
     41 HC62        -0.7970     0.8060    -1.1830 h1         1 RHO       0.029200
     42 HC63        -2.0900     0.3780    -2.3110 h1         1 RHO       0.029200
     43 HC71         0.2740    -2.8820    -1.5360 h1         1 RHO       0.029200
     44 HC72         0.2480    -1.8210    -2.9330 h1         1 RHO       0.029200
     45 HC73        -1.0590    -2.9790    -2.6920 h1         1 RHO       0.029200
     46 H10C        -5.3950     1.7870     3.1790 ha         1 RHO       0.134000
     47 H12C        -7.2880    -0.7480     6.1100 ha         1 RHO       0.116000
     48 H131        -6.9090    -2.4820     4.2710 hc         1 RHO       0.058200
     49 H132        -5.6020    -2.4420     5.4060 hc         1 RHO       0.058200
     50 H151        -5.3020     3.0190     4.8750 h1         1 RHO       0.026367
     51 H152        -5.5330     2.6490     6.5850 h1         1 RHO       0.026367
     52 H153        -6.6010     3.7980     5.7670 h1         1 RHO       0.026367
     53 H161        -8.7970     0.9680     5.8820 h1         1 RHO       0.026367
     54 H162        -8.4870     2.6110     6.4450 h1         1 RHO       0.026367
     55 H163        -7.6680     1.2490     7.2160 h1         1 RHO       0.026367
     56 H19C        -3.6360    -6.5950     5.2540 ha         1 RHO       0.164000
     57 H21C        -6.8850    -6.4500     2.4710 ha         1 RHO       0.119000
     58 H22C        -6.3320    -4.1020     1.9820 ha         1 RHO       0.121000
     59 H25C        -5.1440   -11.3000     4.3600 ha         1 RHO       0.162500
     60 H26C        -7.4630   -10.4920     5.4280 ha         1 RHO       0.162500
@<TRIPOS>BOND
     1     1     2 ar  
     2     1     6 ar  
     3     1     7 1   
     4     2     3 ar  
     5     2    37 1   
     6     3     4 ar  
     7     3    10 1   
     8     4     5 ar  
     9     4    11 1   
    10     5     6 ar  
    11     5    38 1   
    12     6    39 1   
    13     7     8 1   
    14     7     9 1   
    15     8    40 1   
    16     8    41 1   
    17     8    42 1   
    18     9    43 1   
    19     9    44 1   
    20     9    45 1   
    21    10    12 1   
    22    11    17 2   
    23    11    21 1   
    24    12    13 2   
    25    12    17 1   
    26    13    14 1   
    27    13    46 1   
    28    14    15 2   
    29    14    18 1   
    30    15    16 1   
    31    15    47 1   
    32    16    17 1   
    33    16    48 1   
    34    16    49 1   
    35    18    19 1   
    36    18    20 1   
    37    19    50 1   
    38    19    51 1   
    39    19    52 1   
    40    20    53 1   
    41    20    54 1   
    42    20    55 1   
    43    21    22 ar  
    44    21    26 ar  
    45    22    23 ar  
    46    22    27 1   
    47    23    24 ar  
    48    23    56 1   
    49    24    25 ar  
    50    24    30 1   
    51    25    26 ar  
    52    25    57 1   
    53    26    58 1   
    54    27    28 1   
    55    27    29 1   
    56    30    31 1   
    57    30    35 1   
    58    31    32 2   
    59    31    33 1   
    60    33    34 2   
    61    33    59 1   
    62    34    35 1   
    63    34    60 1   
    64    35    36 2   
@<TRIPOS>SUBSTRUCTURE
     1 RHO         1 TEMP              0 ****  ****    0 ROOT
