@<TRIPOS>MOLECULE
RHO
   60    64     1     0     0
SMALL
No Charge or Current Charge


@<TRIPOS>ATOM
      1 C           -1.9550    -1.5620    -0.5150 ca         1 RHO       0.359000
      2 C1          -2.5590    -0.5890     0.2970 ca         1 RHO      -0.235000
      3 C2          -3.3480    -0.9680     1.3900 ca         1 RHO       0.232000
      4 C3          -3.5560    -2.3180     1.6990 ca         1 RHO      -0.115000
      5 C4          -2.9510    -3.2990     0.8910 ca         1 RHO       0.006000
      6 C5          -2.1590    -2.9200    -0.2060 ca         1 RHO      -0.224000
      7 N           -1.1560    -1.1850    -1.6230 nh         1 RHO      -0.837400
      8 C6          -1.3850     0.0890    -2.3440 c3         1 RHO       0.227600
      9 C7          -0.0550    -2.0460    -2.1120 c3         1 RHO       0.227600
     10 OH1         -3.9210     0.0040     2.1640 os         1 RHO      -0.326000
     11 C8          -4.3860    -2.6810     2.8500 cc         1 RHO       0.101000
     12 C9          -4.7290    -0.3060     3.2200 cd         1 RHO       0.226000
     13 C10         -5.2900     0.7440     3.8920 ce         1 RHO      -0.288000
     14 C11         -6.1880     0.5480     5.0290 ce         1 RHO       0.147000
     15 C12         -6.4770    -0.7080     5.4360 c2         1 RHO      -0.298200
     16 C13         -5.9100    -1.9630     4.7760 c6         1 RHO       0.036100
     17 C14         -4.9860    -1.6730     3.5970 cd         1 RHO      -0.140300
     18 N1          -6.7300     1.6700     5.6760 nh         1 RHO      -0.637400
     19 C15         -6.1930     3.0370     5.4770 c3         1 RHO       0.181100
     20 C16         -7.8750     1.5680     6.6130 c3         1 RHO       0.181100
     21 C17         -4.6790    -4.0680     3.2160 ca         1 RHO      -0.029000
     22 C18         -3.9750    -4.7340     4.2500 ca         1 RHO      -0.111600
     23 C19         -4.3270    -6.0610     4.5780 ca         1 RHO      -0.072000
     24 C20         -5.3520    -6.7370     3.8870 ca         1 RHO       0.012600
     25 C21         -6.0330    -6.0680     2.8540 ca         1 RHO      -0.125000
     26 C22         -5.6990    -4.7460     2.5240 ca         1 RHO      -0.123000
     27 C23         -2.8640    -4.0590     5.0230 c          1 RHO       0.710600
     28 OH2         -2.8700    -4.1670     6.2410 o          1 RHO      -0.702000
     29 OH3         -1.9670    -3.5090     4.4010 o          1 RHO      -0.702000
     30 N2          -5.6960    -8.0930     4.2280 n          1 RHO      -0.301600
     31 C24         -4.7510    -9.1010     4.4750 c          1 RHO       0.556700
     32 OH4         -3.5330    -9.0060     4.4300 o          1 RHO      -0.468000
     33 C25         -5.5430   -10.2930     4.7760 cc         1 RHO      -0.243200
     34 C26         -6.8780    -9.9760     4.7030 cd         1 RHO      -0.243200
     35 C27         -7.0140    -8.5600     4.3520 c          1 RHO       0.556700
     36 OH5         -8.0490    -7.9240     4.2160 o          1 RHO      -0.468000
     37 HC1         -2.4140     0.4670     0.0960 ha         1 RHO       0.117000
     38 HC4         -3.0900    -4.3560     1.1070 ha         1 RHO       0.130000
     39 HC5         -1.7130    -3.6970    -0.8200 ha         1 RHO       0.107000
     40 HC61        -1.0170     0.0240    -3.3770 h1         1 RHO       0.029200
     41 HC62        -0.8660     0.9150    -1.8400 h1         1 RHO       0.029200
     42 HC63        -2.4580     0.3190    -2.3890 h1         1 RHO       0.029200
     43 HC71         0.4450    -2.5470    -1.2720 h1         1 RHO       0.029200
     44 HC72         0.7020    -1.4490    -2.6390 h1         1 RHO       0.029200
     45 HC73        -0.4400    -2.8090    -2.8010 h1         1 RHO       0.029200
     46 H10C        -5.0570     1.7390     3.5250 ha         1 RHO       0.184000
     47 H12C        -7.1310    -0.8980     6.2850 ha         1 RHO       0.166000
     48 H131        -6.7470    -2.5940     4.4490 hc         1 RHO       0.058200
     49 H132        -5.3750    -2.5430     5.5400 hc         1 RHO       0.058200
     50 H151        -5.0950     3.0250     5.5020 h1         1 RHO       0.026367
     51 H152        -6.5360     3.7190     6.2660 h1         1 RHO       0.026367
     52 H153        -6.5200     3.4360     4.5080 h1         1 RHO       0.026367
     53 H161        -8.6480     0.9040     6.2040 h1         1 RHO       0.026367
     54 H162        -8.3360     2.5490     6.7880 h1         1 RHO       0.026367
     55 H163        -7.5410     1.1660     7.5790 h1         1 RHO       0.026367
     56 H19C        -3.7970    -6.5640     5.3840 ha         1 RHO       0.146000
     57 H21C        -6.8190    -6.5710     2.2960 ha         1 RHO       0.101000
     58 H22C        -6.2380    -4.2400     1.7260 ha         1 RHO       0.103000
     59 H25C        -5.0840   -11.2480     5.0100 ha         1 RHO       0.212500
     60 H26C        -7.7420   -10.6110     4.8680 ha         1 RHO       0.212500
@<TRIPOS>BOND
     1     1     2 ar  
     2     1     6 ar  
     3     1     7 1   
     4     2     3 ar  
     5     2    37 1   
     6     3     4 ar  
     7     3    10 1   
     8     4     5 ar  
     9     4    11 1   
    10     5     6 ar  
    11     5    38 1   
    12     6    39 1   
    13     7     8 1   
    14     7     9 1   
    15     8    40 1   
    16     8    41 1   
    17     8    42 1   
    18     9    43 1   
    19     9    44 1   
    20     9    45 1   
    21    10    12 1   
    22    11    17 2   
    23    11    21 1   
    24    12    13 2   
    25    12    17 1   
    26    13    14 1   
    27    13    46 1   
    28    14    15 2   
    29    14    18 1   
    30    15    16 1   
    31    15    47 1   
    32    16    17 1   
    33    16    48 1   
    34    16    49 1   
    35    18    19 1   
    36    18    20 1   
    37    19    50 1   
    38    19    51 1   
    39    19    52 1   
    40    20    53 1   
    41    20    54 1   
    42    20    55 1   
    43    21    22 ar  
    44    21    26 ar  
    45    22    23 ar  
    46    22    27 1   
    47    23    24 ar  
    48    23    56 1   
    49    24    25 ar  
    50    24    30 1   
    51    25    26 ar  
    52    25    57 1   
    53    26    58 1   
    54    27    28 1   
    55    27    29 1   
    56    30    31 1   
    57    30    35 1   
    58    31    32 2   
    59    31    33 1   
    60    33    34 2   
    61    33    59 1   
    62    34    35 1   
    63    34    60 1   
    64    35    36 2   
@<TRIPOS>SUBSTRUCTURE
     1 RHO         1 TEMP              0 ****  ****    0 ROOT
