@<TRIPOS>MOLECULE
RHP
   27    28     1     0     0
SMALL
abcg2


@<TRIPOS>ATOM
      1 C13          1.3740     1.1290    -4.4670 c1         1 RHP      -0.236000
      2 C12          1.0990     0.4630    -3.5050 c1         1 RHP      -0.146100
      3 C11          0.7540    -0.3490    -2.3420 c3         1 RHP       0.238900
      4 N10         -0.6150    -0.1040    -1.9250 n7         1 RHP      -0.847400
      5 C9          -1.0510    -0.9640    -0.8280 c5         1 RHP       0.210800
      6 C1          -2.5250    -0.6650    -0.5200 c5         1 RHP      -0.075400
      7 C2          -2.4940     0.5560     0.4120 c5         1 RHP      -0.020100
      8 C3          -1.1950     0.3600     1.1430 ca         1 RHP      -0.103300
      9 C8          -0.3820    -0.5410     0.4590 ca         1 RHP      -0.054300
     10 C7           0.8450    -0.9330     0.9610 ca         1 RHP      -0.129000
     11 C4          -0.7560     0.9000     2.3390 ca         1 RHP      -0.060000
     12 C5           0.4840     0.5280     2.8510 ca         1 RHP      -0.201000
     13 C6           1.2810    -0.3900     2.1710 ca         1 RHP       0.133100
     14 O6           2.4820    -0.7960     2.6380 oh         1 RHP      -0.537100
     15 H13          1.6210     1.7200    -5.3190 ha         1 RHP       0.254000
     16 H111         1.4320    -0.0840    -1.5260 h1         1 RHP       0.050200
     17 H112         0.9560    -1.4060    -2.5740 h1         1 RHP       0.050200
     18 H10         -1.2270    -0.2730    -2.7160 hn         1 RHP       0.413000
     19 H9          -0.8810    -2.0290    -1.0480 h1         1 RHP       0.036700
     20 H11         -2.9520    -1.5170     0.0120 hc         1 RHP       0.048200
     21 H12         -3.1190    -0.5110    -1.4220 hc         1 RHP       0.048200
     22 H21         -3.3570     0.5960     1.0780 hc         1 RHP       0.056200
     23 H22         -2.4860     1.4880    -0.1600 hc         1 RHP       0.056200
     24 H7           1.4620    -1.6590     0.4440 ha         1 RHP       0.126000
     25 H4          -1.3710     1.5990     2.8930 ha         1 RHP       0.114000
     26 H5           0.8200     0.9440     3.7950 ha         1 RHP       0.111000
     27 HO6          2.6780    -0.3690     3.4790 ho         1 RHP       0.464000
@<TRIPOS>BOND
     1     1     2 3   
     2     1    15 1   
     3     2     3 1   
     4     3     4 1   
     5     3    16 1   
     6     3    17 1   
     7     4     5 1   
     8     4    18 1   
     9     5     6 1   
    10     5     9 1   
    11     5    19 1   
    12     6     7 1   
    13     6    20 1   
    14     6    21 1   
    15     7     8 1   
    16     7    22 1   
    17     7    23 1   
    18     8     9 ar  
    19     8    11 ar  
    20     9    10 ar  
    21    10    13 ar  
    22    10    24 1   
    23    11    12 ar  
    24    11    25 1   
    25    12    13 ar  
    26    12    26 1   
    27    13    14 1   
    28    14    27 1   
@<TRIPOS>SUBSTRUCTURE
     1 RHP         1 TEMP              0 ****  ****    0 ROOT
