@<TRIPOS>MOLECULE
RHP
   27    28     1     0     0
SMALL
No Charge or Current Charge


@<TRIPOS>ATOM
      1 C13          1.2980     1.0840    -4.6270 c1         1 RHP      -0.236000
      2 C12          1.0840     0.4700    -3.6060 c1         1 RHP      -0.146100
      3 C11          0.8270    -0.3040    -2.3860 c3         1 RHP       0.238900
      4 N10         -0.5870    -0.1740    -2.0020 n7         1 RHP      -0.847400
      5 C9          -1.0190    -0.9770    -0.8300 c5         1 RHP       0.210800
      6 C1          -2.5260    -0.6050    -0.5420 c5         1 RHP      -0.075400
      7 C2          -2.4870     0.6120     0.4610 c5         1 RHP      -0.020100
      8 C3          -1.1940     0.3300     1.1800 ca         1 RHP      -0.103300
      9 C8          -0.3860    -0.5410     0.4730 ca         1 RHP      -0.054300
     10 C7           0.8610    -0.9370     0.9840 ca         1 RHP      -0.129000
     11 C4          -0.7860     0.8530     2.4180 ca         1 RHP      -0.060000
     12 C5           0.4650     0.4700     2.9400 ca         1 RHP      -0.201000
     13 C6           1.2850    -0.4250     2.2230 ca         1 RHP       0.133100
     14 O6           2.4930    -0.7970     2.7310 oh         1 RHP      -0.537100
     15 H13          1.4760     1.6360    -5.5290 ha         1 RHP       0.254000
     16 H111         1.4880     0.0660    -1.5900 h1         1 RHP       0.050200
     17 H112         1.0850    -1.3550    -2.5780 h1         1 RHP       0.050200
     18 H10         -1.1470    -0.4530    -2.8150 hn         1 RHP       0.413000
     19 H9          -0.8910    -2.0530    -1.0130 h1         1 RHP       0.036700
     20 H11         -3.0240    -1.4570    -0.0640 hc         1 RHP       0.048200
     21 H12         -3.1020    -0.3840    -1.4480 hc         1 RHP       0.048200
     22 H21         -3.3580     0.6300     1.1270 hc         1 RHP       0.056200
     23 H22         -2.4500     1.5710    -0.0680 hc         1 RHP       0.056200
     24 H7           1.4910    -1.6290     0.4300 ha         1 RHP       0.126000
     25 H4          -1.4270     1.5410     2.9650 ha         1 RHP       0.114000
     26 H5           0.7890     0.8680     3.8980 ha         1 RHP       0.111000
     27 HO6          2.6180    -0.3460     3.5930 ho         1 RHP       0.464000
@<TRIPOS>BOND
     1     1     2 3   
     2     1    15 1   
     3     2     3 1   
     4     3     4 1   
     5     3    16 1   
     6     3    17 1   
     7     4     5 1   
     8     4    18 1   
     9     5     6 1   
    10     5     9 1   
    11     5    19 1   
    12     6     7 1   
    13     6    20 1   
    14     6    21 1   
    15     7     8 1   
    16     7    22 1   
    17     7    23 1   
    18     8     9 ar  
    19     8    11 ar  
    20     9    10 ar  
    21    10    13 ar  
    22    10    24 1   
    23    11    12 ar  
    24    11    25 1   
    25    12    13 ar  
    26    12    26 1   
    27    13    14 1   
    28    14    27 1   
@<TRIPOS>SUBSTRUCTURE
     1 RHP         1 TEMP              0 ****  ****    0 ROOT
