@<TRIPOS>MOLECULE
RHS
   43    42     1     0     0
SMALL
abcg2


@<TRIPOS>ATOM
      1 N           -1.5200     0.9150     3.7360 nt         1 RHS      -0.605000
      2 C           -1.0750    -0.0930     2.9700 c          1 RHS       0.607100
      3 O           -1.3600    -1.2620     3.1970 o          1 RHS      -0.616100
      4 C2          -0.2120     0.3170     1.7870 c3         1 RHS      -0.124700
      5 CT1          1.3080     0.1800     2.1070 c3         1 RHS      -0.034000
      6 CT2          2.1110     0.5740     0.8660 c3         1 RHS      -0.089100
      7 CT3          1.6810     1.1330     3.2470 c3         1 RHS      -0.089100
      8 CT4          1.7050    -1.2430     2.5090 c3         1 RHS      -0.089100
      9 C1          -0.6540    -0.4550     0.5390 c3         1 RHS      -0.147400
     10 C6          -0.5700     0.3540    -0.7440 c          1 RHS       0.601100
     11 O1          -0.8120     1.5540    -0.7700 o          1 RHS      -0.618100
     12 N1          -0.2720    -0.3660    -1.8370 ns         1 RHS      -0.502900
     13 C3          -0.2820     0.1270    -3.2020 c3         1 RHS       0.106700
     14 C4           1.0480    -0.1760    -3.8920 c3         1 RHS      -0.089900
     15 C5           2.2440     0.5080    -3.2480 c3         1 RHS      -0.087100
     16 C7          -1.4620    -0.4590    -3.9790 c3         1 RHS      -0.089900
     17 C8          -2.8210    -0.0680    -3.4210 c3         1 RHS      -0.087100
     18 HN'1        -1.2690     1.8710     3.5540 hn         1 RHS       0.313500
     19 HN'2        -2.0570     0.7270     4.5670 hn         1 RHS       0.313500
     20 H2          -0.3890     1.3800     1.5940 hc         1 RHS       0.078700
     21 HT21         3.1800     0.5580     1.0900 hc         1 RHS       0.037478
     22 HT22         1.9480    -0.1210     0.0400 hc         1 RHS       0.037478
     23 HT23         1.8590     1.5770     0.5150 hc         1 RHS       0.037478
     24 HT31         1.3850     2.1600     3.0240 hc         1 RHS       0.037478
     25 HT32         1.2180     0.8490     4.1920 hc         1 RHS       0.037478
     26 HT33         2.7620     1.1260     3.4020 hc         1 RHS       0.037478
     27 HT41         1.4800    -1.9730     1.7290 hc         1 RHS       0.037478
     28 HT42         2.7820    -1.2840     2.6830 hc         1 RHS       0.037478
     29 HT43         1.2120    -1.5700     3.4230 hc         1 RHS       0.037478
     30 H1'1        -1.7080    -0.7360     0.6300 hc         1 RHS       0.070200
     31 H1'2        -0.1120    -1.3970     0.4420 hc         1 RHS       0.070200
     32 HN          -0.1010    -1.3530    -1.7170 hn         1 RHS       0.307500
     33 H3          -0.4050     1.2100    -3.1460 h1         1 RHS       0.083700
     34 H41          0.9620     0.1400    -4.9350 hc         1 RHS       0.040450
     35 H42          1.2030    -1.2590    -3.9180 hc         1 RHS       0.040450
     36 H51          3.1590     0.2910    -3.7990 hc         1 RHS       0.036367
     37 H52          2.1170     1.5920    -3.2310 hc         1 RHS       0.036367
     38 H53          2.3930     0.1770    -2.2200 hc         1 RHS       0.036367
     39 H21         -1.3820    -0.1220    -5.0170 hc         1 RHS       0.040450
     40 H22         -1.3670    -1.5490    -4.0070 hc         1 RHS       0.040450
     41 H11         -3.6250    -0.4750    -4.0350 hc         1 RHS       0.036367
     42 H12         -2.9660    -0.4430    -2.4070 hc         1 RHS       0.036367
     43 H13         -2.9410     1.0160    -3.3940 hc         1 RHS       0.036367
@<TRIPOS>BOND
     1     1     2 1   
     2     1    18 1   
     3     1    19 1   
     4     2     3 2   
     5     2     4 1   
     6     4     5 1   
     7     4     9 1   
     8     4    20 1   
     9     5     6 1   
    10     5     7 1   
    11     5     8 1   
    12     6    21 1   
    13     6    22 1   
    14     6    23 1   
    15     7    24 1   
    16     7    25 1   
    17     7    26 1   
    18     8    27 1   
    19     8    28 1   
    20     8    29 1   
    21     9    10 1   
    22     9    30 1   
    23     9    31 1   
    24    10    11 2   
    25    10    12 1   
    26    12    13 1   
    27    12    32 1   
    28    13    14 1   
    29    13    16 1   
    30    13    33 1   
    31    14    15 1   
    32    14    34 1   
    33    14    35 1   
    34    15    36 1   
    35    15    37 1   
    36    15    38 1   
    37    16    17 1   
    38    16    39 1   
    39    16    40 1   
    40    17    41 1   
    41    17    42 1   
    42    17    43 1   
@<TRIPOS>SUBSTRUCTURE
     1 RHS         1 TEMP              0 ****  ****    0 ROOT
