@<TRIPOS>MOLECULE
RHS
   43    42     1     0     0
SMALL
No Charge or Current Charge


@<TRIPOS>ATOM
      1 N           -1.3710     1.4570     3.6530 nt         1 RHS      -0.605000
      2 C           -1.0470     0.2760     3.0810 c          1 RHS       0.607100
      3 O           -1.4410    -0.7640     3.5810 o          1 RHS      -0.616100
      4 C2          -0.1820     0.3470     1.7940 c3         1 RHS      -0.124700
      5 CT1          1.3280    -0.0520     2.0410 c3         1 RHS      -0.034000
      6 CT2          2.1600     0.1760     0.7520 c3         1 RHS      -0.089100
      7 CT3          1.9310     0.8510     3.1550 c3         1 RHS      -0.089100
      8 CT4          1.4980    -1.5350     2.4800 c3         1 RHS      -0.089100
      9 C1          -0.9090    -0.3890     0.6090 c3         1 RHS      -0.147400
     10 C6          -0.8880     0.3850    -0.7180 c          1 RHS       0.601100
     11 O1          -1.4240     1.4770    -0.8410 o          1 RHS      -0.618100
     12 N1          -0.2820    -0.2630    -1.7730 ns         1 RHS      -0.502900
     13 C3          -0.2910     0.2020    -3.1660 c3         1 RHS       0.106700
     14 C4           1.1310     0.1720    -3.7750 c3         1 RHS      -0.089900
     15 C5           2.1340     1.1210    -3.0860 c3         1 RHS      -0.087100
     16 C7          -1.2930    -0.6260    -4.0080 c3         1 RHS      -0.089900
     17 C8          -2.7530    -0.5640    -3.5080 c3         1 RHS      -0.087100
     18 HN'1        -1.0530     2.3230     3.2460 hn         1 RHS       0.313500
     19 HN'2        -1.9350     1.4590     4.4900 hn         1 RHS       0.313500
     20 H2          -0.1530     1.4120     1.5320 hc         1 RHS       0.078700
     21 HT21         3.2300     0.0250     0.9410 hc         1 RHS       0.037478
     22 HT22         1.8700    -0.5270    -0.0370 hc         1 RHS       0.037478
     23 HT23         2.0280     1.1970     0.3730 hc         1 RHS       0.037478
     24 HT31         1.8310     1.9130     2.9000 hc         1 RHS       0.037478
     25 HT32         1.4380     0.6840     4.1200 hc         1 RHS       0.037478
     26 HT33         2.9990     0.6420     3.2950 hc         1 RHS       0.037478
     27 HT41         1.1160    -2.2340     1.7280 hc         1 RHS       0.037478
     28 HT42         2.5590    -1.7720     2.6310 hc         1 RHS       0.037478
     29 HT43         0.9850    -1.7380     3.4270 hc         1 RHS       0.037478
     30 H1'1        -1.9690    -0.4960     0.8690 hc         1 RHS       0.070200
     31 H1'2        -0.5050    -1.3960     0.4660 hc         1 RHS       0.070200
     32 HN           0.1260    -1.1680    -1.5750 hn         1 RHS       0.307500
     33 H3          -0.6310     1.2470    -3.1880 h1         1 RHS       0.083700
     34 H41          1.0700     0.4530    -4.8340 hc         1 RHS       0.040450
     35 H42          1.5230    -0.8520    -3.7430 hc         1 RHS       0.040450
     36 H51          3.0960     1.1050    -3.6130 hc         1 RHS       0.036367
     37 H52          1.7590     2.1510    -3.0880 hc         1 RHS       0.036367
     38 H53          2.3130     0.8180    -2.0500 hc         1 RHS       0.036367
     39 H21         -1.2690    -0.2660    -5.0440 hc         1 RHS       0.040450
     40 H22         -0.9700    -1.6740    -4.0330 hc         1 RHS       0.040450
     41 H11         -3.4130    -1.1110    -4.1920 hc         1 RHS       0.036367
     42 H12         -2.8500    -1.0130    -2.5130 hc         1 RHS       0.036367
     43 H13         -3.1010     0.4750    -3.4560 hc         1 RHS       0.036367
@<TRIPOS>BOND
     1     1     2 1   
     2     1    18 1   
     3     1    19 1   
     4     2     3 2   
     5     2     4 1   
     6     4     5 1   
     7     4     9 1   
     8     4    20 1   
     9     5     6 1   
    10     5     7 1   
    11     5     8 1   
    12     6    21 1   
    13     6    22 1   
    14     6    23 1   
    15     7    24 1   
    16     7    25 1   
    17     7    26 1   
    18     8    27 1   
    19     8    28 1   
    20     8    29 1   
    21     9    10 1   
    22     9    30 1   
    23     9    31 1   
    24    10    11 2   
    25    10    12 1   
    26    12    13 1   
    27    12    32 1   
    28    13    14 1   
    29    13    16 1   
    30    13    33 1   
    31    14    15 1   
    32    14    34 1   
    33    14    35 1   
    34    15    36 1   
    35    15    37 1   
    36    15    38 1   
    37    16    17 1   
    38    16    39 1   
    39    16    40 1   
    40    17    41 1   
    41    17    42 1   
    42    17    43 1   
@<TRIPOS>SUBSTRUCTURE
     1 RHS         1 TEMP              0 ****  ****    0 ROOT
