@<TRIPOS>MOLECULE
RHT
   31    33     1     0     0
SMALL
No Charge or Current Charge


@<TRIPOS>ATOM
      1 C1          43.8120     2.3850    16.1970 c3         1 RHT       0.067900
      2 N1          44.0680     3.8090    16.4580 na         1 RHT      -0.181600
      3 C2          44.6330     4.4050    17.5880 cc         1 RHT       0.420700
      4 N2          44.6990     5.7470    17.4390 nd         1 RHT      -0.572100
      5 C3          44.1530     5.9710    16.1760 ca         1 RHT       0.073400
      6 N3          42.0370     4.0480     9.1410 nv         1 RHT      -1.053900
      7 C4          43.9780     7.1960    15.5210 ca         1 RHT      -0.053000
      8 N4          41.2100     6.0080     9.6250 nb         1 RHT      -0.811000
      9 C5          43.3980     7.1940    14.2330 ca         1 RHT      -0.118000
     10 N5          40.3090     7.9690     9.9450 nv         1 RHT      -1.053900
     11 C6          42.9940     5.9800    13.5970 cp         1 RHT      -0.030000
     12 C7          43.1930     4.7590    14.3000 ca         1 RHT      -0.094000
     13 C8          43.7720     4.8050    15.5770 ca         1 RHT      -0.089200
     14 C9          42.3800     5.9900    12.2290 cp         1 RHT       0.078000
     15 C10         42.5390     4.9190    11.3220 ca         1 RHT      -0.274000
     16 C11         41.9350     4.9980    10.0670 ca         1 RHT       0.633400
     17 C12         41.0640     7.0090    10.4730 ca         1 RHT       0.633400
     18 C13         41.6020     7.0710    11.7580 ca         1 RHT      -0.274000
     19 H1          44.1390     1.7840    17.0540 h1         1 RHT       0.052033
     20 H2          42.7380     2.2270    16.0350 h1         1 RHT       0.052033
     21 H3          44.3640     2.0690    15.3030 h1         1 RHT       0.052033
     22 H4          44.9630     3.8330    18.4460 h5         1 RHT       0.059800
     23 H5          41.7600     4.3440     8.2140 hn         1 RHT       0.467750
     24 H6          42.8330     3.4240     9.1990 hn         1 RHT       0.467750
     25 H7          44.2840     8.1260    15.9940 ha         1 RHT       0.130000
     26 H8          43.2740     8.1430    13.7180 ha         1 RHT       0.119000
     27 H9          39.7980     7.6850     9.1190 hn         1 RHT       0.467750
     28 H10         39.8270     8.5890    10.5860 hn         1 RHT       0.467750
     29 H11         42.8920     3.8090    13.8670 ha         1 RHT       0.121000
     30 H12         43.1300     4.0480    11.5820 ha         1 RHT       0.122000
     31 H13         41.4080     7.9350    12.3830 ha         1 RHT       0.122000
@<TRIPOS>BOND
     1     1     2 1   
     2     1    19 1   
     3     1    20 1   
     4     1    21 1   
     5     2     3 1   
     6     2    13 1   
     7     3     4 2   
     8     3    22 1   
     9     4     5 1   
    10     5     7 ar  
    11     5    13 ar  
    12     6    16 1   
    13     6    23 1   
    14     6    24 1   
    15     7     9 ar  
    16     7    25 1   
    17     8    16 ar  
    18     8    17 ar  
    19     9    11 ar  
    20     9    26 1   
    21    10    17 1   
    22    10    27 1   
    23    10    28 1   
    24    11    12 ar  
    25    11    14 1   
    26    12    13 ar  
    27    12    29 1   
    28    14    15 ar  
    29    14    18 ar  
    30    15    16 ar  
    31    15    30 1   
    32    17    18 ar  
    33    18    31 1   
@<TRIPOS>SUBSTRUCTURE
     1 RHT         1 TEMP              0 ****  ****    0 ROOT
