@<TRIPOS>MOLECULE
RHT
   31    33     1     0     0
SMALL
abcg2


@<TRIPOS>ATOM
      1 C1          43.7470     2.4000    16.2580 c3         1 RHT       0.067900
      2 N1          44.0060     3.8120    16.4070 na         1 RHT      -0.181600
      3 C2          44.5790     4.4300    17.4690 cc         1 RHT       0.420700
      4 N2          44.6960     5.7210    17.3320 nd         1 RHT      -0.572100
      5 C3          44.1660     5.9860    16.0930 ca         1 RHT       0.073400
      6 N3          42.1880     4.0040     9.1430 nv         1 RHT      -1.053900
      7 C4          44.0160     7.1900    15.4070 ca         1 RHT      -0.053000
      8 N4          41.2280     6.0150     9.6800 nb         1 RHT      -0.811000
      9 C5          43.4340     7.1590    14.1560 ca         1 RHT      -0.118000
     10 N5          40.2190     8.0310    10.0990 nv         1 RHT      -1.053900
     11 C6          42.9970     5.9580    13.5580 cp         1 RHT      -0.030000
     12 C7          43.1470     4.7520    14.2340 ca         1 RHT      -0.094000
     13 C8          43.7270     4.7940    15.4940 ca         1 RHT      -0.089200
     14 C9          42.3860     5.9810    12.2120 cp         1 RHT       0.078000
     15 C10         42.6320     4.9520    11.3090 ca         1 RHT      -0.274000
     16 C11         42.0230     5.0130    10.0500 ca         1 RHT       0.633400
     17 C12         41.0010     7.0020    10.5440 ca         1 RHT       0.633400
     18 C13         41.5540     7.0270    11.8300 ca         1 RHT      -0.274000
     19 H1          44.0740     1.8820    17.1550 h1         1 RHT       0.052033
     20 H2          42.6830     2.2190    16.1160 h1         1 RHT       0.052033
     21 H3          44.2920     1.9990    15.4040 h1         1 RHT       0.052033
     22 H4          44.8970     3.8640    18.3340 h5         1 RHT       0.059800
     23 H5          41.9920     4.2370     8.1840 hn         1 RHT       0.467750
     24 H6          42.9880     3.4040     9.2620 hn         1 RHT       0.467750
     25 H7          44.3520     8.1240    15.8400 ha         1 RHT       0.130000
     26 H8          43.3290     8.0850    13.6050 ha         1 RHT       0.119000
     27 H9          39.6230     7.8270     9.3140 hn         1 RHT       0.467750
     28 H10         39.7940     8.6220    10.7940 hn         1 RHT       0.467750
     29 H11         42.8030     3.8210    13.8010 ha         1 RHT       0.121000
     30 H12         43.2970     4.1340    11.5520 ha         1 RHT       0.122000
     31 H13         41.3160     7.8350    12.5090 ha         1 RHT       0.122000
@<TRIPOS>BOND
     1     1     2 1   
     2     1    19 1   
     3     1    20 1   
     4     1    21 1   
     5     2     3 1   
     6     2    13 1   
     7     3     4 2   
     8     3    22 1   
     9     4     5 1   
    10     5     7 ar  
    11     5    13 ar  
    12     6    16 1   
    13     6    23 1   
    14     6    24 1   
    15     7     9 ar  
    16     7    25 1   
    17     8    16 ar  
    18     8    17 ar  
    19     9    11 ar  
    20     9    26 1   
    21    10    17 1   
    22    10    27 1   
    23    10    28 1   
    24    11    12 ar  
    25    11    14 1   
    26    12    13 ar  
    27    12    29 1   
    28    14    15 ar  
    29    14    18 ar  
    30    15    16 ar  
    31    15    30 1   
    32    17    18 ar  
    33    18    31 1   
@<TRIPOS>SUBSTRUCTURE
     1 RHT         1 TEMP              0 ****  ****    0 ROOT
