@<TRIPOS>MOLECULE
RHV
   36    36     1     0     0
SMALL
No Charge or Current Charge


@<TRIPOS>ATOM
      1 C10          1.1890     1.3490    -0.8540 c3         1 RHV      -0.186000
      2 C13          3.2270    -0.2100    -0.8570 ca         1 RHV      -0.137000
      3 C15          5.2530    -1.7550    -0.8820 c3         1 RHV      -0.052800
      4 C17          3.5290     0.3480     1.8140 ca         1 RHV       0.342900
      5 C01         -6.8130    -1.3540     0.6000 c3         1 RHV      -0.098100
      6 C02         -5.7490    -0.2880     0.9050 c3         1 RHV       0.168600
      7 C04         -3.4720     0.1840     0.2760 c          1 RHV       0.585100
      8 C06         -2.2950    -0.3230    -0.5830 c3         1 RHV       0.042000
      9 C08          0.0870     0.3230    -1.1250 c          1 RHV       0.609100
     10 C11          1.6030     2.1080    -2.1430 c3         1 RHV      -0.084100
     11 C12          2.3540     0.6540    -0.1640 ca         1 RHV       0.356300
     12 C14          4.2920    -0.8180    -0.1690 ca         1 RHV      -0.036300
     13 C16          4.4400    -0.5250     1.1960 ca         1 RHV      -0.164000
     14 N07         -1.1000     0.5440    -0.4670 ns         1 RHV      -0.499900
     15 N18          2.5030     0.9300     1.1530 nb         1 RHV      -0.680000
     16 O03         -4.5680    -0.6320     0.1610 os         1 RHV      -0.445100
     17 O05         -3.4320     1.1910     0.9740 o          1 RHV      -0.496000
     18 O09          0.2370    -0.6330    -1.8720 o          1 RHV      -0.605100
     19 H1           0.7790     2.1040    -0.1720 hc         1 RHV       0.076700
     20 H2           3.0750    -0.4110    -1.9130 ha         1 RHV       0.127000
     21 H3           6.0720    -1.1930    -1.3470 hc         1 RHV       0.048033
     22 H4           5.6950    -2.4790    -0.1880 hc         1 RHV       0.048033
     23 H5           4.7450    -2.3220    -1.6710 hc         1 RHV       0.048033
     24 H6           3.6240     0.5890     2.8720 h4         1 RHV       0.018100
     25 H7          -6.4610    -2.3480     0.9010 hc         1 RHV       0.049033
     26 H8          -7.7370    -1.1350     1.1470 hc         1 RHV       0.049033
     27 H9          -7.0430    -1.3730    -0.4720 hc         1 RHV       0.049033
     28 H10         -6.1250     0.7010     0.6100 h1         1 RHV       0.050700
     29 H11         -5.5430    -0.2750     1.9840 h1         1 RHV       0.050700
     30 H12         -2.0500    -1.3420    -0.2570 h1         1 RHV       0.082200
     31 H13         -2.6280    -0.3620    -1.6280 h1         1 RHV       0.082200
     32 H14          0.7470     2.6550    -2.5570 hc         1 RHV       0.045700
     33 H15          2.3960     2.8330    -1.9250 hc         1 RHV       0.045700
     34 H16          1.9690     1.4210    -2.9150 hc         1 RHV       0.045700
     35 H17          5.2460    -0.9630     1.7780 ha         1 RHV       0.121000
     36 H18         -1.1470     1.3550     0.1410 hn         1 RHV       0.342500
@<TRIPOS>BOND
     1     1     9 1   
     2     1    10 1   
     3     1    11 1   
     4     1    19 1   
     5     2    11 ar  
     6     2    12 ar  
     7     2    20 1   
     8     3    12 1   
     9     3    21 1   
    10     3    22 1   
    11     3    23 1   
    12     4    13 ar  
    13     4    15 ar  
    14     4    24 1   
    15     5     6 1   
    16     5    25 1   
    17     5    26 1   
    18     5    27 1   
    19     6    16 1   
    20     6    28 1   
    21     6    29 1   
    22     7     8 1   
    23     7    16 1   
    24     7    17 2   
    25     8    14 1   
    26     8    30 1   
    27     8    31 1   
    28     9    14 1   
    29     9    18 2   
    30    10    32 1   
    31    10    33 1   
    32    10    34 1   
    33    11    15 ar  
    34    12    13 ar  
    35    13    35 1   
    36    14    36 1   
@<TRIPOS>SUBSTRUCTURE
     1 RHV         1 TEMP              0 ****  ****    0 ROOT
