@<TRIPOS>MOLECULE
RHV
   36    36     1     0     0
SMALL
abcg2


@<TRIPOS>ATOM
      1 C10          1.1290     1.1490    -0.7720 c3         1 RHV      -0.186000
      2 C13          3.3630    -0.0490    -0.8840 ca         1 RHV      -0.137000
      3 C15          5.5730    -1.2400    -1.0350 c3         1 RHV      -0.052800
      4 C17          3.3700    -0.0780     1.8110 ca         1 RHV       0.342900
      5 C01         -6.8350    -1.0950     0.4990 c3         1 RHV      -0.098100
      6 C02         -5.7730    -0.0630     0.7800 c3         1 RHV       0.168600
      7 C04         -3.4700     0.2210     0.3080 c          1 RHV       0.585100
      8 C06         -2.2770    -0.4440    -0.3330 c3         1 RHV       0.042000
      9 C08          0.0290     0.0970    -0.8580 c          1 RHV       0.609100
     10 C11          1.3760     1.7280    -2.1640 c3         1 RHV      -0.084100
     11 C12          2.3410     0.5130    -0.1350 ca         1 RHV       0.356300
     12 C14          4.4470    -0.6460    -0.2460 ca         1 RHV      -0.036300
     13 C16          4.4380    -0.6560     1.1440 ca         1 RHV      -0.164000
     14 N07         -1.1390     0.4320    -0.2950 ns         1 RHV      -0.499900
     15 N18          2.3440     0.4950     1.1980 nb         1 RHV      -0.680000
     16 O03         -4.5360    -0.5490     0.2230 os         1 RHV      -0.445100
     17 O05         -3.4450     1.3080     0.8280 o          1 RHV      -0.496000
     18 O09          0.2080    -0.9700    -1.4270 o          1 RHV      -0.605100
     19 H1           0.8090     1.9580    -0.1100 hc         1 RHV       0.076700
     20 H2           3.3270    -0.0230    -1.9660 ha         1 RHV       0.127000
     21 H3           6.1530    -0.4550    -1.5240 hc         1 RHV       0.048033
     22 H4           6.2500    -1.8120    -0.4040 hc         1 RHV       0.048033
     23 H5           5.1980    -1.8960    -1.8210 hc         1 RHV       0.048033
     24 H6           3.3450    -0.0780     2.8960 h4         1 RHV       0.018100
     25 H7          -6.5870    -2.0580     0.9440 hc         1 RHV       0.049033
     26 H8          -7.7770    -0.7600     0.9320 hc         1 RHV       0.049033
     27 H9          -6.9890    -1.2320    -0.5710 hc         1 RHV       0.049033
     28 H10         -6.0260     0.8950     0.3220 h1         1 RHV       0.050700
     29 H11         -5.6490     0.0940     1.8530 h1         1 RHV       0.050700
     30 H12         -2.0760    -1.3830     0.1930 h1         1 RHV       0.082200
     31 H13         -2.5350    -0.7140    -1.3610 h1         1 RHV       0.082200
     32 H14          0.4880     2.2510    -2.5190 hc         1 RHV       0.045700
     33 H15          2.1980     2.4420    -2.1400 hc         1 RHV       0.045700
     34 H16          1.6170     0.9530    -2.8920 hc         1 RHV       0.045700
     35 H17          5.2480    -1.1060     1.7030 ha         1 RHV       0.121000
     36 H18         -1.2350     1.3190     0.1750 hn         1 RHV       0.342500
@<TRIPOS>BOND
     1     1     9 1   
     2     1    10 1   
     3     1    11 1   
     4     1    19 1   
     5     2    11 ar  
     6     2    12 ar  
     7     2    20 1   
     8     3    12 1   
     9     3    21 1   
    10     3    22 1   
    11     3    23 1   
    12     4    13 ar  
    13     4    15 ar  
    14     4    24 1   
    15     5     6 1   
    16     5    25 1   
    17     5    26 1   
    18     5    27 1   
    19     6    16 1   
    20     6    28 1   
    21     6    29 1   
    22     7     8 1   
    23     7    16 1   
    24     7    17 2   
    25     8    14 1   
    26     8    30 1   
    27     8    31 1   
    28     9    14 1   
    29     9    18 2   
    30    10    32 1   
    31    10    33 1   
    32    10    34 1   
    33    11    15 ar  
    34    12    13 ar  
    35    13    35 1   
    36    14    36 1   
@<TRIPOS>SUBSTRUCTURE
     1 RHV         1 TEMP              0 ****  ****    0 ROOT
