@<TRIPOS>MOLECULE
RHW
   28    30     1     0     0
SMALL
bcc


@<TRIPOS>ATOM
      1 C1          40.9560     7.0970    10.2920 ca         1 RHW       0.700700
      2 N1          40.2490     8.1760     9.8400 nv         1 RHW      -0.944500
      3 O1          44.6090     5.6760    17.0060 os         1 RHW      -0.172200
      4 C2          41.5290     7.1010    11.5690 ca         1 RHW      -0.358800
      5 N2          41.8890     3.9950     8.9250 nv         1 RHW      -0.944500
      6 C3          42.2820     5.9980    11.9570 cp         1 RHW       0.080000
      7 N3          41.0940     6.0830     9.4410 nb         1 RHW      -0.812000
      8 C4          42.4330     4.9390    11.0690 ca         1 RHW      -0.358800
      9 C5          41.8130     5.0270     9.8170 ca         1 RHW       0.700700
     10 C6          42.9090     5.9460    13.2950 cp         1 RHW      -0.065000
     11 C7          43.4560     7.1130    13.8630 ca         1 RHW      -0.094000
     12 C8          44.0530     7.1140    15.1110 ca         1 RHW      -0.126000
     13 C9          44.0840     5.9050    15.7840 ca         1 RHW       0.062100
     14 C10         44.4180     4.3560    17.2700 cc         1 RHW      -0.021900
     15 C11         43.7880     3.7240    16.2610 cd         1 RHW      -0.184200
     16 C12         43.5540     4.7260    15.2580 ca         1 RHW      -0.118800
     17 C13         42.9610     4.7470    13.9970 ca         1 RHW      -0.060000
     18 H1          39.6260     8.0060     9.0680 hn         1 RHW       0.413300
     19 H2          39.8800     8.8080    10.5310 hn         1 RHW       0.413300
     20 H3          41.3650     7.9350    12.2390 ha         1 RHW       0.140000
     21 H4          41.6900     4.2220     7.9650 hn         1 RHW       0.413300
     22 H5          42.6370     3.3330     9.0450 hn         1 RHW       0.413300
     23 H6          43.0350     4.0750    11.3190 ha         1 RHW       0.140000
     24 H7          43.4290     8.0370    13.3000 ha         1 RHW       0.139000
     25 H8          44.4790     8.0160    15.5310 ha         1 RHW       0.150000
     26 H9          44.7870     4.0060    18.2210 h4         1 RHW       0.188000
     27 H10         43.5230     2.6800    16.2270 ha         1 RHW       0.164000
     28 H11         42.5300     3.8450    13.5820 ha         1 RHW       0.143000
@<TRIPOS>BOND
     1     1     2 1   
     2     1     4 ar  
     3     1     7 ar  
     4     2    18 1   
     5     2    19 1   
     6     3    13 1   
     7     3    14 1   
     8     4     6 ar  
     9     4    20 1   
    10     5     9 1   
    11     5    21 1   
    12     5    22 1   
    13     6     8 ar  
    14     6    10 1   
    15     7     9 ar  
    16     8     9 ar  
    17     8    23 1   
    18    10    11 ar  
    19    10    17 ar  
    20    11    12 ar  
    21    11    24 1   
    22    12    13 ar  
    23    12    25 1   
    24    13    16 ar  
    25    14    15 2   
    26    14    26 1   
    27    15    16 1   
    28    15    27 1   
    29    16    17 ar  
    30    17    28 1   
@<TRIPOS>SUBSTRUCTURE
     1 RHW         1 TEMP              0 ****  ****    0 ROOT
