@<TRIPOS>MOLECULE
RHW
   28    30     1     0     0
SMALL
No Charge or Current Charge


@<TRIPOS>ATOM
      1 C1          41.0120     7.0990    10.2190 ca         1 RHW       0.635400
      2 N1          40.3190     8.1050     9.6920 nv         1 RHW      -1.054900
      3 O1          44.6430     5.6820    17.1340 os         1 RHW      -0.172200
      4 C2          41.5700     7.1330    11.4970 ca         1 RHW      -0.275500
      5 N2          41.7550     4.0650     8.9040 nv         1 RHW      -1.054900
      6 C3          42.2770     6.0050    11.9680 cp         1 RHW       0.080000
      7 N3          41.0750     6.0830     9.3800 nb         1 RHW      -0.812000
      8 C4          42.3470     4.9170    11.0690 ca         1 RHW      -0.275500
      9 C5          41.7330     5.0280     9.8220 ca         1 RHW       0.635400
     10 C6          42.9080     5.9630    13.3270 cp         1 RHW      -0.065000
     11 C7          43.4080     7.1520    13.9440 ca         1 RHW      -0.076000
     12 C8          44.0050     7.1280    15.2240 ca         1 RHW      -0.108000
     13 C9          44.0960     5.8980    15.8840 ca         1 RHW       0.062100
     14 C10         44.4980     4.3090    17.3510 cc         1 RHW      -0.071900
     15 C11         43.8830     3.7260    16.2580 cd         1 RHW      -0.234200
     16 C12         43.6220     4.7540    15.3050 ca         1 RHW      -0.118800
     17 C13         43.0260     4.7350    14.0400 ca         1 RHW      -0.042000
     18 H1          39.7780     7.8500     8.8760 hn         1 RHW       0.468500
     19 H2          39.8900     8.7610    10.3340 hn         1 RHW       0.468500
     20 H3          41.4470     8.0150    12.1160 ha         1 RHW       0.122000
     21 H4          41.4870     4.3730     7.9780 hn         1 RHW       0.468500
     22 H5          42.5060     3.3880     8.9570 hn         1 RHW       0.468500
     23 H6          42.8780     4.0080    11.3300 ha         1 RHW       0.122000
     24 H7          43.3460     8.1020    13.4190 ha         1 RHW       0.121000
     25 H8          44.3850     8.0360    15.6850 ha         1 RHW       0.132000
     26 H9          44.8640     3.8990    18.2890 h4         1 RHW       0.238000
     27 H10         43.6450     2.6690    16.1540 ha         1 RHW       0.214000
     28 H11         42.6520     3.8020    13.6260 ha         1 RHW       0.125000
@<TRIPOS>BOND
     1     1     2 1   
     2     1     4 ar  
     3     1     7 ar  
     4     2    18 1   
     5     2    19 1   
     6     3    13 1   
     7     3    14 1   
     8     4     6 ar  
     9     4    20 1   
    10     5     9 1   
    11     5    21 1   
    12     5    22 1   
    13     6     8 ar  
    14     6    10 1   
    15     7     9 ar  
    16     8     9 ar  
    17     8    23 1   
    18    10    11 ar  
    19    10    17 ar  
    20    11    12 ar  
    21    11    24 1   
    22    12    13 ar  
    23    12    25 1   
    24    13    16 ar  
    25    14    15 2   
    26    14    26 1   
    27    15    16 1   
    28    15    27 1   
    29    16    17 ar  
    30    17    28 1   
@<TRIPOS>SUBSTRUCTURE
     1 RHW         1 TEMP              0 ****  ****    0 ROOT
