@<TRIPOS>MOLECULE
RHY
   32    35     1     0     0
SMALL
No Charge or Current Charge


@<TRIPOS>ATOM
      1 C10          0.0860    -0.5200    -0.0570 c5         1 RHY       0.151000
      2 C17          1.4600    -1.2410     0.0940 c5         1 RHY       0.108000
      3 C01          4.7700     0.8080    -0.3070 c3         1 RHY      -0.176100
      4 C02          3.8240    -0.3500     0.0150 c          1 RHY       0.612100
      5 C05          1.8240     1.1060    -0.5870 c5         1 RHY       0.109000
      6 C06          0.3900     0.6630    -1.0160 c5         1 RHY      -0.106700
      7 C07         -0.6210     1.7800    -0.5560 c5         1 RHY      -0.093400
      8 C08         -1.2130     1.1930     0.7710 c5         1 RHY       0.144000
      9 C11         -1.1220    -1.4360    -0.4570 c6         1 RHY      -0.004100
     10 C12         -2.4260    -0.7310    -0.1670 cc         1 RHY      -0.197300
     11 C14         -4.5510    -0.1160     0.0870 cc         1 RHY       0.389400
     12 C16         -2.5270     0.4900     0.4310 cd         1 RHY       0.205300
     13 N04          2.4480    -0.1850    -0.2330 n          1 RHY      -0.412800
     14 N13         -3.7280    -1.1250    -0.3830 na         1 RHY      -0.288500
     15 N15         -3.8360     0.8890     0.5880 nd         1 RHY      -0.651000
     16 O03          4.2590    -1.4070     0.4540 o          1 RHY      -0.602100
     17 O09         -0.2290     0.1980     1.1610 os         1 RHY      -0.427000
     18 H1           1.5970    -1.6370     1.1090 h1         1 RHY       0.069200
     19 H2           1.5480    -2.0770    -0.6130 h1         1 RHY       0.069200
     20 H3           4.6390     1.0960    -1.3560 hc         1 RHY       0.059700
     21 H4           4.4400     1.7050     0.2310 hc         1 RHY       0.059700
     22 H5           5.8160     0.5700    -0.0860 hc         1 RHY       0.059700
     23 H6           2.3440     1.6170    -1.4070 h1         1 RHY       0.046200
     24 H7           1.8190     1.7690     0.2890 h1         1 RHY       0.046200
     25 H8           0.3250     0.3950    -2.0770 hc         1 RHY       0.069700
     26 H9          -0.1390     2.7500    -0.3900 hc         1 RHY       0.062200
     27 H10         -1.4020     1.9520    -1.3060 hc         1 RHY       0.062200
     28 H11         -1.3630     1.9380     1.5640 h1         1 RHY       0.105700
     29 H12         -1.0470    -1.7100    -1.5180 hc         1 RHY       0.060700
     30 H13         -1.0680    -2.3750     0.1100 hc         1 RHY       0.060700
     31 H14         -5.6320    -0.1760     0.0340 h5         1 RHY       0.057100
     32 H15         -4.0460    -1.9890    -0.8040 hn         1 RHY       0.352000
@<TRIPOS>BOND
     1     1     2 1   
     2     1     6 1   
     3     1     9 1   
     4     1    17 1   
     5     2    13 1   
     6     2    18 1   
     7     2    19 1   
     8     3     4 1   
     9     3    20 1   
    10     3    21 1   
    11     3    22 1   
    12     4    13 1   
    13     4    16 2   
    14     5     6 1   
    15     5    13 1   
    16     5    23 1   
    17     5    24 1   
    18     6     7 1   
    19     6    25 1   
    20     7     8 1   
    21     7    26 1   
    22     7    27 1   
    23     8    12 1   
    24     8    17 1   
    25     8    28 1   
    26     9    10 1   
    27     9    29 1   
    28     9    30 1   
    29    10    12 2   
    30    10    14 1   
    31    11    14 1   
    32    11    15 2   
    33    11    31 1   
    34    12    15 1   
    35    14    32 1   
@<TRIPOS>SUBSTRUCTURE
     1 RHY         1 TEMP              0 ****  ****    0 ROOT
