@<TRIPOS>MOLECULE
RHY
   32    35     1     0     0
SMALL
abcg2


@<TRIPOS>ATOM
      1 C10          0.0710    -0.5860     0.0010 c5         1 RHY       0.151000
      2 C17          1.4420    -1.2340     0.0560 c5         1 RHY       0.108000
      3 C01          4.4580     1.0590    -0.2220 c3         1 RHY      -0.176100
      4 C02          3.6240    -0.1220     0.2080 c          1 RHY       0.612100
      5 C05          1.7390     0.7870    -1.1610 c5         1 RHY       0.109000
      6 C06          0.2350     0.6790    -0.8920 c5         1 RHY      -0.106700
      7 C07         -0.3620     1.8070    -0.0330 c5         1 RHY      -0.093400
      8 C08         -1.1370     1.0160     1.0220 c5         1 RHY       0.144000
      9 C11         -1.0550    -1.5160    -0.4680 c6         1 RHY      -0.004100
     10 C12         -2.3160    -0.7650    -0.2220 cc         1 RHY      -0.197300
     11 C14         -4.3680    -0.0130    -0.1570 cc         1 RHY       0.389400
     12 C16         -2.3860     0.4150     0.4580 cd         1 RHY       0.205300
     13 N04          2.3470    -0.1370    -0.2180 n          1 RHY      -0.412800
     14 N13         -3.5960    -1.0280    -0.6070 na         1 RHY      -0.288500
     15 N15         -3.6660     0.8840     0.4930 nd         1 RHY      -0.651000
     16 O03          4.0810    -1.0170     0.9100 o          1 RHY      -0.602100
     17 O09         -0.2530    -0.0670     1.2850 os         1 RHY      -0.427000
     18 H1           1.6450    -1.6910     1.0230 h1         1 RHY       0.069200
     19 H2           1.5270    -2.0130    -0.7100 h1         1 RHY       0.069200
     20 H3           4.5420     1.1120    -1.3090 hc         1 RHY       0.059700
     21 H4           4.0240     2.0010     0.1150 hc         1 RHY       0.059700
     22 H5           5.4580     0.9700     0.1960 hc         1 RHY       0.059700
     23 H6           1.9720     0.4930    -2.1890 h1         1 RHY       0.046200
     24 H7           2.1070     1.8020    -1.0170 h1         1 RHY       0.046200
     25 H8          -0.3060     0.5790    -1.8330 hc         1 RHY       0.069700
     26 H9           0.4220     2.3980     0.4480 hc         1 RHY       0.062200
     27 H10         -0.9910     2.4890    -0.6050 hc         1 RHY       0.062200
     28 H11         -1.3130     1.5700     1.9460 h1         1 RHY       0.105700
     29 H12         -0.9190    -1.7530    -1.5270 hc         1 RHY       0.060700
     30 H13         -1.0310    -2.4650     0.0790 hc         1 RHY       0.060700
     31 H14         -5.4330     0.0170    -0.3270 h5         1 RHY       0.057100
     32 H15         -3.9200    -1.8280    -1.1270 hn         1 RHY       0.352000
@<TRIPOS>BOND
     1     1     2 1   
     2     1     6 1   
     3     1     9 1   
     4     1    17 1   
     5     2    13 1   
     6     2    18 1   
     7     2    19 1   
     8     3     4 1   
     9     3    20 1   
    10     3    21 1   
    11     3    22 1   
    12     4    13 1   
    13     4    16 2   
    14     5     6 1   
    15     5    13 1   
    16     5    23 1   
    17     5    24 1   
    18     6     7 1   
    19     6    25 1   
    20     7     8 1   
    21     7    26 1   
    22     7    27 1   
    23     8    12 1   
    24     8    17 1   
    25     8    28 1   
    26     9    10 1   
    27     9    29 1   
    28     9    30 1   
    29    10    12 2   
    30    10    14 1   
    31    11    14 1   
    32    11    15 2   
    33    11    31 1   
    34    12    15 1   
    35    14    32 1   
@<TRIPOS>SUBSTRUCTURE
     1 RHY         1 TEMP              0 ****  ****    0 ROOT
