@<TRIPOS>MOLECULE
RHZ
   27    28     1     0     0
SMALL
bcc


@<TRIPOS>ATOM
      1 C1          43.3910     1.8690    14.9710 c3         1 RHZ       0.124700
      2 O1          43.7500     3.0550    15.6560 os         1 RHZ      -0.300900
      3 C2          43.6010     4.2280    15.0310 ca         1 RHZ       0.148100
      4 C3          44.0060     5.3720    15.7290 ca         1 RHZ      -0.008600
      5 CL1         44.6670     5.1970    17.3150 cl         1 RHZ      -0.090400
      6 C4          43.8840     6.6270    15.1640 ca         1 RHZ      -0.090000
      7 C5          43.3500     6.7690    13.8920 ca         1 RHZ      -0.144000
      8 C6          42.9380     5.6480    13.1790 cp         1 RHZ      -0.003000
      9 C7          43.0710     4.3840    13.7550 ca         1 RHZ      -0.198000
     10 C8          42.3590     5.7830    11.8270 cp         1 RHZ       0.040000
     11 C9          41.5530     6.8610    11.5080 ca         1 RHZ      -0.304300
     12 C10         41.0120     6.9610    10.2150 ca         1 RHZ       0.662200
     13 N1          40.2500     8.0340     9.8610 nv         1 RHZ      -0.947500
     14 N2          41.2440     6.0440     9.2770 nb         1 RHZ      -0.740000
     15 C11         42.0220     5.0150     9.5950 ca         1 RHZ       0.448200
     16 C12         42.6030     4.8270    10.8320 ca         1 RHZ      -0.296300
     17 H1          43.6130     1.0480    15.6460 h1         1 RHZ       0.044033
     18 H2          42.3270     1.8470    14.7250 h1         1 RHZ       0.044033
     19 H3          43.9700     1.7410    14.0530 h1         1 RHZ       0.044033
     20 H4          44.2140     7.4970    15.7160 ha         1 RHZ       0.149000
     21 H5          43.2810     7.7560    13.4570 ha         1 RHZ       0.142000
     22 H6          42.7300     3.5170    13.2050 ha         1 RHZ       0.142000
     23 H7          41.3130     7.6150    12.2480 ha         1 RHZ       0.140000
     24 H8          39.6750     7.9250     9.0420 hn         1 RHZ       0.417300
     25 H9          39.8300     8.5770    10.5970 hn         1 RHZ       0.417300
     26 H10         42.1960     4.2910     8.8050 h4         1 RHZ       0.016100
     27 H11         43.2430     3.9730    11.0090 ha         1 RHZ       0.142000
@<TRIPOS>BOND
     1     1     2 1   
     2     1    17 1   
     3     1    18 1   
     4     1    19 1   
     5     2     3 1   
     6     3     4 ar  
     7     3     9 ar  
     8     4     5 1   
     9     4     6 ar  
    10     6     7 ar  
    11     6    20 1   
    12     7     8 ar  
    13     7    21 1   
    14     8     9 ar  
    15     8    10 1   
    16     9    22 1   
    17    10    11 ar  
    18    10    16 ar  
    19    11    12 ar  
    20    11    23 1   
    21    12    13 1   
    22    12    14 ar  
    23    13    24 1   
    24    13    25 1   
    25    14    15 ar  
    26    15    16 ar  
    27    15    26 1   
    28    16    27 1   
@<TRIPOS>SUBSTRUCTURE
     1 RHZ         1 TEMP              0 ****  ****    0 ROOT
