@<TRIPOS>MOLECULE
RHZ
   27    28     1     0     0
SMALL
No Charge or Current Charge


@<TRIPOS>ATOM
      1 C1          43.4360     1.7630    15.0080 c3         1 RHZ       0.147900
      2 O1          43.8130     2.9870    15.6650 os         1 RHZ      -0.324100
      3 C2          43.6480     4.2290    15.0760 ca         1 RHZ       0.148100
      4 C3          44.0490     5.3750    15.7940 ca         1 RHZ       0.083000
      5 Cl1         44.7530     5.2320    17.4070 cl         1 RHZ      -0.182000
      6 C4          43.8940     6.6510    15.2310 ca         1 RHZ      -0.072000
      7 C5          43.3370     6.7920    13.9490 ca         1 RHZ      -0.126000
      8 C6          42.9240     5.6620    13.2010 cp         1 RHZ      -0.003000
      9 C7          43.0890     4.3810    13.7860 ca         1 RHZ      -0.180000
     10 C8          42.3310     5.8180    11.8330 cp         1 RHZ       0.040000
     11 C9          41.5480     6.9390    11.4760 ca         1 RHZ      -0.221000
     12 C10         41.0270     7.0230    10.1840 ca         1 RHZ       0.596900
     13 N1          40.2660     8.0340     9.7580 nv         1 RHZ      -1.057900
     14 N2          41.1990     6.1210     9.2300 nb         1 RHZ      -0.740000
     15 C11         41.9460     5.0410     9.5470 ca         1 RHZ       0.382900
     16 C12         42.5210     4.8530    10.8150 ca         1 RHZ      -0.213000
     17 H1          43.6580     0.9030    15.6520 h1         1 RHZ       0.044033
     18 H2          42.3610     1.7540    14.7870 h1         1 RHZ       0.044033
     19 H3          43.9910     1.6370    14.0700 h1         1 RHZ       0.044033
     20 H4          44.2080     7.5300    15.7870 ha         1 RHZ       0.131000
     21 H5          43.2390     7.7900    13.5280 ha         1 RHZ       0.124000
     22 H6          42.7600     3.5110    13.2270 ha         1 RHZ       0.124000
     23 H7          41.3380     7.7250    12.1940 ha         1 RHZ       0.122000
     24 H8          39.7650     7.8540     8.8960 hn         1 RHZ       0.472500
     25 H9          39.7810     8.5870    10.4560 hn         1 RHZ       0.472500
     26 H10         42.0910     4.3030     8.7580 h4         1 RHZ       0.016100
     27 H11         43.1210     3.9660    10.9930 ha         1 RHZ       0.124000
@<TRIPOS>BOND
     1     1     2 1   
     2     1    17 1   
     3     1    18 1   
     4     1    19 1   
     5     2     3 1   
     6     3     4 ar  
     7     3     9 ar  
     8     4     5 1   
     9     4     6 ar  
    10     6     7 ar  
    11     6    20 1   
    12     7     8 ar  
    13     7    21 1   
    14     8     9 ar  
    15     8    10 1   
    16     9    22 1   
    17    10    11 ar  
    18    10    16 ar  
    19    11    12 ar  
    20    11    23 1   
    21    12    13 1   
    22    12    14 ar  
    23    13    24 1   
    24    13    25 1   
    25    14    15 ar  
    26    15    16 ar  
    27    15    26 1   
    28    16    27 1   
@<TRIPOS>SUBSTRUCTURE
     1 RHZ         1 TEMP              0 ****  ****    0 ROOT
