@<TRIPOS>MOLECULE
RI1
   40    43     1     0     0
SMALL
No Charge or Current Charge


@<TRIPOS>ATOM
      1 N1         -20.3150     4.6370    27.1050 ns         1 RI1      -0.153000
      2 C4         -22.0680     4.0430    30.2740 ca         1 RI1       0.006700
      3 C5         -21.6490     2.7060    30.4150 ca         1 RI1      -0.119000
      4 C6         -22.0390     4.6860    28.8860 c6         1 RI1      -0.148400
      5 C7         -22.9290     5.9350    28.7390 c6         1 RI1       0.187800
      6 C8         -20.6010     4.9790    28.4180 c          1 RI1       0.600100
      7 C10        -18.5540     3.6270    25.7690 ca         1 RI1       0.319900
      8 C13        -16.4860     7.2030    25.3090 ca         1 RI1      -0.081000
      9 C15        -18.1940     8.4260    26.5320 ca         1 RI1      -0.086000
     10 C17        -18.4230     6.0110    26.2180 ca         1 RI1       0.002000
     11 O2         -19.7550     5.4170    29.1890 o          1 RI1      -0.581100
     12 C9         -19.1020     4.7760    26.3750 ca         1 RI1      -0.090000
     13 C16        -18.9180     7.2360    26.7220 ca         1 RI1      -0.092000
     14 C14        -16.9770     8.4100    25.8320 ca         1 RI1      -0.105000
     15 C12        -17.2090     6.0080    25.4940 ca         1 RI1      -0.092000
     16 C11        -16.7360     4.7980    24.9500 ca         1 RI1       0.366900
     17 N2         -17.3950     3.6240    25.0730 nb         1 RI1      -0.652000
     18 C          -21.6570     2.0870    31.6740 ca         1 RI1       0.170000
     19 Cl         -21.1290     0.4160    31.8320 cl         1 RI1      -0.190000
     20 N          -22.6330     6.9420    29.7750 n7         1 RI1      -0.829300
     21 S          -23.0490     6.4690    31.3190 sy         1 RI1       1.160600
     22 O          -24.5110     6.5300    31.3900 o          1 RI1      -0.531000
     23 O1         -22.2200     7.2790    32.2130 o          1 RI1      -0.531000
     24 C3         -22.5000     4.7580    31.4150 ca         1 RI1      -0.277500
     25 C2         -22.5050     4.1290    32.6780 ca         1 RI1       0.004000
     26 C1         -22.0840     2.7950    32.8050 ca         1 RI1      -0.107000
     27 H1         -21.0740     4.2040    26.5940 hn         1 RI1       0.159000
     28 H3         -22.4590     3.9780    28.1570 hc         1 RI1       0.082700
     29 H4         -22.7720     6.3790    27.7420 h1         1 RI1       0.086200
     30 H5         -23.9910     5.6470    28.7880 h1         1 RI1       0.086200
     31 H6         -19.0560     2.6640    25.8590 h4         1 RI1       0.022100
     32 H7         -15.5480     7.1990    24.7560 ha         1 RI1       0.120000
     33 H8         -18.5810     9.3640    26.9260 ha         1 RI1       0.119000
     34 H9         -19.8650     7.2850    27.2500 ha         1 RI1       0.118000
     35 H10        -16.4200     9.3330    25.6870 ha         1 RI1       0.120000
     36 H11        -15.8040     4.7680    24.3860 h4         1 RI1       0.025100
     37 H12        -21.6240     7.0470    29.8830 hn         1 RI1       0.505000
     38 H13        -22.8340     4.6710    33.5640 ha         1 RI1       0.140000
     39 H14        -22.0880     2.3120    33.7780 ha         1 RI1       0.141000
     40 H2         -21.3150     2.1430    29.5480 ha         1 RI1       0.124000
@<TRIPOS>BOND
     1     1     6 1   
     2     1    12 1   
     3     1    27 1   
     4     2     3 ar  
     5     2     4 1   
     6     2    24 ar  
     7     3    18 ar  
     8     3    40 1   
     9     4     5 1   
    10     4     6 1   
    11     4    28 1   
    12     5    20 1   
    13     5    29 1   
    14     5    30 1   
    15     6    11 2   
    16     7    12 ar  
    17     7    17 ar  
    18     7    31 1   
    19     8    14 ar  
    20     8    15 ar  
    21     8    32 1   
    22     9    13 ar  
    23     9    14 ar  
    24     9    33 1   
    25    10    12 ar  
    26    10    13 ar  
    27    10    15 ar  
    28    13    34 1   
    29    14    35 1   
    30    15    16 ar  
    31    16    17 ar  
    32    16    36 1   
    33    18    19 1   
    34    18    26 ar  
    35    20    21 1   
    36    20    37 1   
    37    21    22 2   
    38    21    23 2   
    39    21    24 1   
    40    24    25 ar  
    41    25    26 ar  
    42    25    38 1   
    43    26    39 1   
@<TRIPOS>SUBSTRUCTURE
     1 RI1         1 TEMP              0 ****  ****    0 ROOT
