@<TRIPOS>MOLECULE
RI1
   40    43     1     0     0
SMALL
abcg2


@<TRIPOS>ATOM
      1 N1         -20.3330     4.6820    27.2710 ns         1 RI1      -0.153000
      2 C4         -22.1470     4.1460    30.0960 ca         1 RI1       0.006700
      3 C5         -21.9140     2.7800    29.9390 ca         1 RI1      -0.119000
      4 C6         -22.1500     5.0280    28.8610 c6         1 RI1      -0.148400
      5 C7         -22.8610     6.3710    29.0780 c6         1 RI1       0.187800
      6 C8         -20.7010     5.2760    28.4280 c          1 RI1       0.600100
      7 C10        -18.2490     3.6160    26.7000 ca         1 RI1       0.319900
      8 C13        -16.5820     7.1120    25.2080 ca         1 RI1      -0.081000
      9 C15        -18.6230     8.3130    25.6650 ca         1 RI1      -0.086000
     10 C17        -18.4980     5.9710    26.2310 ca         1 RI1       0.002000
     11 O2         -19.9460     5.9780    29.0940 o          1 RI1      -0.581100
     12 C9         -19.0160     4.7520    26.7410 ca         1 RI1      -0.090000
     13 C16        -19.2160     7.1880    26.1810 ca         1 RI1      -0.092000
     14 C14        -17.2960     8.2810    25.1810 ca         1 RI1      -0.105000
     15 C12        -17.1680     5.9330    25.7250 ca         1 RI1      -0.092000
     16 C11        -16.4770     4.6980    25.7420 ca         1 RI1       0.366900
     17 N2         -16.9890     3.5770    26.1980 nb         1 RI1      -0.652000
     18 C          -21.8720     1.9480    31.0450 ca         1 RI1       0.170000
     19 CL         -21.5820     0.2430    30.8140 cl         1 RI1      -0.190000
     20 N          -22.3500     7.0850    30.2610 n7         1 RI1      -0.829300
     21 S          -22.6930     6.3480    31.6820 sy         1 RI1       1.160600
     22 O          -24.1140     6.4520    31.9190 o          1 RI1      -0.531000
     23 O1         -21.7910     6.8800    32.6750 o          1 RI1      -0.531000
     24 C3         -22.3300     4.6360    31.3930 ca         1 RI1      -0.277500
     25 C2         -22.2920     3.7910    32.5000 ca         1 RI1       0.004000
     26 C1         -22.0560     2.4370    32.3330 ca         1 RI1      -0.107000
     27 H1         -20.9830     4.0480    26.8290 hn         1 RI1       0.159000
     28 H3         -22.6760     4.4980    28.0670 hc         1 RI1       0.082700
     29 H4         -22.7240     7.0180    28.2140 h1         1 RI1       0.086200
     30 H5         -23.9300     6.2050    29.2070 h1         1 RI1       0.086200
     31 H6         -18.6490     2.6850    27.0850 h4         1 RI1       0.022100
     32 H7         -15.5670     7.0700    24.8320 ha         1 RI1       0.120000
     33 H8         -19.1800     9.2410    25.6270 ha         1 RI1       0.119000
     34 H9         -20.2320     7.2250    26.5450 ha         1 RI1       0.118000
     35 H10        -16.8510     9.1840    24.7840 ha         1 RI1       0.120000
     36 H11        -15.4640     4.6610    25.3530 h4         1 RI1       0.025100
     37 H12        -21.3430     7.2270    30.1880 hn         1 RI1       0.505000
     38 H13        -22.4410     4.1910    33.4940 ha         1 RI1       0.140000
     39 H14        -22.0190     1.7730    33.1850 ha         1 RI1       0.141000
     40 H2         -21.7660     2.3710    28.9480 ha         1 RI1       0.124000
@<TRIPOS>BOND
     1     1     6 1   
     2     1    12 1   
     3     1    27 1   
     4     2     3 ar  
     5     2     4 1   
     6     2    24 ar  
     7     3    18 ar  
     8     3    40 1   
     9     4     5 1   
    10     4     6 1   
    11     4    28 1   
    12     5    20 1   
    13     5    29 1   
    14     5    30 1   
    15     6    11 2   
    16     7    12 ar  
    17     7    17 ar  
    18     7    31 1   
    19     8    14 ar  
    20     8    15 ar  
    21     8    32 1   
    22     9    13 ar  
    23     9    14 ar  
    24     9    33 1   
    25    10    12 ar  
    26    10    13 ar  
    27    10    15 ar  
    28    13    34 1   
    29    14    35 1   
    30    15    16 ar  
    31    16    17 ar  
    32    16    36 1   
    33    18    19 1   
    34    18    26 ar  
    35    20    21 1   
    36    20    37 1   
    37    21    22 2   
    38    21    23 2   
    39    21    24 1   
    40    24    25 ar  
    41    25    26 ar  
    42    25    38 1   
    43    26    39 1   
@<TRIPOS>SUBSTRUCTURE
     1 RI1         1 TEMP              0 ****  ****    0 ROOT
