@<TRIPOS>MOLECULE
RI3
   41    45     1     0     0
SMALL
abcg2


@<TRIPOS>ATOM
      1 C18        -44.4370   -28.9680     6.2420 ca         1 RI3       0.184900
      2 C16        -46.5870   -29.5080     6.3300 ca         1 RI3       0.194500
      3 C13        -49.2670   -28.4540     4.0320 ca         1 RI3      -0.039000
      4 C12        -50.6190   -28.7070     4.2250 ca         1 RI3      -0.172000
      5 C11        -51.0250   -29.4520     5.3260 ca         1 RI3       0.171000
      6 C10        -50.1520   -29.9470     6.2720 ca         1 RI3      -0.185000
      7 C20        -44.4510   -27.4510     2.5360 c5         1 RI3       0.223800
      8 C02        -46.7490   -28.0630    -0.4520 c          1 RI3       0.719000
      9 C03        -45.9070   -28.2870     0.8290 c5         1 RI3       0.051000
     10 C04        -46.7070   -28.2200     2.1190 c5         1 RI3       0.191800
     11 C06        -45.7300   -28.3890     4.4080 ca         1 RI3       0.443900
     12 C07        -46.8730   -28.8860     5.0910 cp         1 RI3      -0.240000
     13 C08        -48.3210   -28.9580     4.9310 cp         1 RI3      -0.041000
     14 C09        -48.8040   -29.6770     6.0610 ca         1 RI3      -0.007200
     15 C21        -44.8040   -27.2460     1.0610 c5         1 RI3      -0.067700
     16 C22        -43.6260   -27.3370     0.1320 cx         1 RI3      -0.086700
     17 C23        -42.7800   -26.1160    -0.1080 cx         1 RI3      -0.136400
     18 C24        -43.6650   -26.6490    -1.2040 cx         1 RI3      -0.136400
     19 F14        -52.3540   -29.6900     5.4890 f          1 RI3      -0.196000
     20 F25        -45.2900   -29.5660     0.7950 f          1 RI3      -0.280000
     21 N05        -45.7090   -27.9070     3.1470 nh         1 RI3      -0.749300
     22 N15        -47.7390   -30.0040     6.8700 na         1 RI3      -0.338300
     23 N17        -45.3960   -29.5830     6.9300 nb         1 RI3      -0.277000
     24 N19        -44.5350   -28.3940     5.0510 nb         1 RI3      -0.303000
     25 O01        -47.3770   -26.9770    -0.4710 o          1 RI3      -0.700000
     26 O26        -46.7210   -28.9490    -1.3310 o          1 RI3      -0.700000
     27 H181       -43.4540   -28.9440     6.7030 h5         1 RI3       0.034100
     28 H131       -48.9760   -27.8540     3.1870 ha         1 RI3       0.141000
     29 H121       -51.3600   -28.3260     3.5360 ha         1 RI3       0.132000
     30 H101       -50.5050   -30.4990     7.1330 ha         1 RI3       0.125000
     31 H202       -43.6780   -28.2140     2.6510 h1         1 RI3       0.053200
     32 H201       -44.0940   -26.5380     3.0110 h1         1 RI3       0.053200
     33 H041       -47.4460   -27.4270     2.0230 h1         1 RI3       0.074200
     34 H042       -47.2030   -29.1660     2.3250 h1         1 RI3       0.074200
     35 H211       -45.2840   -26.2730     0.9390 hc         1 RI3       0.080700
     36 H221       -43.0980   -28.2820     0.1690 hc         1 RI3       0.079700
     37 H231       -41.7100   -26.2470    -0.2030 hc         1 RI3       0.067700
     38 H232       -43.0810   -25.1980     0.3800 hc         1 RI3       0.067700
     39 H242       -44.5560   -26.0870    -1.4510 hc         1 RI3       0.067700
     40 H241       -43.1960   -27.1450    -2.0440 hc         1 RI3       0.067700
     41 H151       -47.7990   -30.4630     7.7660 hn         1 RI3       0.357000
@<TRIPOS>BOND
     1     1    23 ar  
     2     1    24 ar  
     3     1    27 1   
     4     2    12 ar  
     5     2    22 1   
     6     2    23 ar  
     7     3     4 ar  
     8     3    13 ar  
     9     3    28 1   
    10     4     5 ar  
    11     4    29 1   
    12     5     6 ar  
    13     5    19 1   
    14     6    14 ar  
    15     6    30 1   
    16     7    15 1   
    17     7    21 1   
    18     7    31 1   
    19     7    32 1   
    20     8     9 1   
    21     8    25 1   
    22     8    26 1   
    23     9    10 1   
    24     9    15 1   
    25     9    20 1   
    26    10    21 1   
    27    10    33 1   
    28    10    34 1   
    29    11    12 ar  
    30    11    21 1   
    31    11    24 ar  
    32    12    13 1   
    33    13    14 ar  
    34    14    22 1   
    35    15    16 1   
    36    15    35 1   
    37    16    17 1   
    38    16    18 1   
    39    16    36 1   
    40    17    18 1   
    41    17    37 1   
    42    17    38 1   
    43    18    39 1   
    44    18    40 1   
    45    22    41 1   
@<TRIPOS>SUBSTRUCTURE
     1 RI3         1 TEMP              0 ****  ****    0 ROOT
