@<TRIPOS>MOLECULE
RI3
   41    45     1     0     0
SMALL
No Charge or Current Charge


@<TRIPOS>ATOM
      1 C18        -44.3880   -29.9120     6.0700 ca         1 RI3       0.184900
      2 C16        -46.6300   -29.7870     6.4090 ca         1 RI3       0.194500
      3 C13        -48.8850   -28.0700     4.0090 ca         1 RI3      -0.039000
      4 C12        -50.2790   -27.8890     4.1550 ca         1 RI3      -0.172000
      5 C11        -50.9590   -28.4190     5.2770 ca         1 RI3       0.171000
      6 C10        -50.2630   -29.1230     6.2800 ca         1 RI3      -0.185000
      7 C20        -44.6200   -27.4870     2.5740 c5         1 RI3       0.223800
      8 C02        -46.2640   -28.9280    -0.5820 c          1 RI3       0.719000
      9 C03        -45.3890   -28.8140     0.7240 c5         1 RI3       0.051000
     10 C04        -46.2600   -29.2170     1.9510 c5         1 RI3       0.191800
     11 C06        -45.6360   -28.9470     4.3820 ca         1 RI3       0.443900
     12 C07        -46.7870   -29.1500     5.1740 cp         1 RI3      -0.240000
     13 C08        -48.1980   -28.8100     4.9930 cp         1 RI3      -0.041000
     14 C09        -48.8890   -29.2910     6.0990 ca         1 RI3      -0.007200
     15 C21        -45.0510   -27.3310     1.0920 c5         1 RI3      -0.067700
     16 C22        -43.8060   -26.8680     0.2900 cx         1 RI3      -0.086700
     17 C23        -43.6730   -25.3660     0.1920 cx         1 RI3      -0.136400
     18 C24        -44.1360   -26.1670    -1.0070 cx         1 RI3      -0.136400
     19 F14        -52.2900   -28.2250     5.4020 f          1 RI3      -0.196000
     20 F25        -44.2340   -29.6280     0.6440 f          1 RI3      -0.280000
     21 N05        -45.6540   -28.4320     3.0740 nh         1 RI3      -0.749300
     22 N15        -47.9270   -29.8790     6.9290 na         1 RI3      -0.338300
     23 N17        -45.4380   -30.1770     6.8800 nb         1 RI3      -0.277000
     24 N19        -44.4270   -29.3270     4.8500 nb         1 RI3      -0.303000
     25 O01        -47.2550   -28.2170    -0.7080 o          1 RI3      -0.700000
     26 O26        -45.9440   -29.7200    -1.4610 o          1 RI3      -0.700000
     27 H181       -43.4060   -30.2150     6.4320 h5         1 RI3       0.034100
     28 H131       -48.3570   -27.6270     3.1700 ha         1 RI3       0.141000
     29 H121       -50.8330   -27.3270     3.4080 ha         1 RI3       0.132000
     30 H101       -50.7750   -29.5080     7.1570 ha         1 RI3       0.125000
     31 H202       -43.6110   -27.9170     2.6620 h1         1 RI3       0.053200
     32 H201       -44.6380   -26.5260     3.1070 h1         1 RI3       0.053200
     33 H041       -47.3140   -28.9570     1.7990 h1         1 RI3       0.074200
     34 H042       -46.2100   -30.3010     2.1290 h1         1 RI3       0.074200
     35 H211       -45.9200   -26.6660     1.0000 hc         1 RI3       0.080700
     36 H221       -42.8850   -27.4470     0.3340 hc         1 RI3       0.079700
     37 H231       -42.6690   -24.9490     0.1630 hc         1 RI3       0.067700
     38 H232       -44.4060   -24.7430     0.7000 hc         1 RI3       0.067700
     39 H242       -45.1800   -26.0800    -1.3020 hc         1 RI3       0.067700
     40 H241       -43.4420   -26.2870    -1.8350 hc         1 RI3       0.067700
     41 H151       -48.1370   -30.3170     7.8180 hn         1 RI3       0.357000
@<TRIPOS>BOND
     1     1    23 ar  
     2     1    24 ar  
     3     1    27 1   
     4     2    12 ar  
     5     2    22 1   
     6     2    23 ar  
     7     3     4 ar  
     8     3    13 ar  
     9     3    28 1   
    10     4     5 ar  
    11     4    29 1   
    12     5     6 ar  
    13     5    19 1   
    14     6    14 ar  
    15     6    30 1   
    16     7    15 1   
    17     7    21 1   
    18     7    31 1   
    19     7    32 1   
    20     8     9 1   
    21     8    25 1   
    22     8    26 1   
    23     9    10 1   
    24     9    15 1   
    25     9    20 1   
    26    10    21 1   
    27    10    33 1   
    28    10    34 1   
    29    11    12 ar  
    30    11    21 1   
    31    11    24 ar  
    32    12    13 1   
    33    13    14 ar  
    34    14    22 1   
    35    15    16 1   
    36    15    35 1   
    37    16    17 1   
    38    16    18 1   
    39    16    36 1   
    40    17    18 1   
    41    17    37 1   
    42    17    38 1   
    43    18    39 1   
    44    18    40 1   
    45    22    41 1   
@<TRIPOS>SUBSTRUCTURE
     1 RI3         1 TEMP              0 ****  ****    0 ROOT
