@<TRIPOS>MOLECULE
RI4
   50    54     1     0     0
SMALL
abcg2


@<TRIPOS>ATOM
      1 C01          6.1810     7.1510    18.6870 ca         1 RI4       0.390300
      2 C02          4.9040     6.6210    18.4970 ca         1 RI4      -0.175500
      3 C04          4.4500     7.0230    20.8380 ca         1 RI4      -0.108300
      4 C05          5.7640     7.5090    20.9370 ca         1 RI4       0.381300
      5 C07          3.5680     6.9480    22.0580 c3         1 RI4      -0.028100
      6 C10          6.4820     6.8440    23.2920 c3         1 RI4      -0.069400
      7 C11          6.3350     7.9680    22.2510 c3         1 RI4      -0.131700
      8 C13          8.0320     6.0020    17.3390 c5         1 RI4      -0.102400
      9 C15          7.2470     6.8770    15.2680 c5         1 RI4       0.152600
     10 C17          4.4540     6.1040    17.1950 cc         1 RI4       0.491000
     11 C22          2.6470     6.0280    19.3870 cp         1 RI4      -0.069000
     12 C23          2.4460     4.6510    19.3020 ca         1 RI4      -0.094500
     13 C24          1.1690     4.1390    19.0950 ca         1 RI4      -0.108500
     14 C25          0.0840     5.0000    18.9640 ca         1 RI4      -0.099000
     15 C26          0.2810     6.3750    19.0450 ca         1 RI4      -0.108500
     16 C27          1.5550     6.8870    19.2570 ca         1 RI4      -0.094500
     17 C03          4.0190     6.5740    19.5880 cp         1 RI4       0.024000
     18 N06          6.5820     7.5800    19.8840 nb         1 RI4      -0.684000
     19 C08          4.0610     5.9460    23.1180 c3         1 RI4      -0.069400
     20 C09          5.1860     6.4690    24.0110 c3         1 RI4      -0.076400
     21 C12          7.2140     7.2740    17.5940 c5         1 RI4       0.110000
     22 C14          8.4680     6.1990    15.8860 c5         1 RI4      -0.107400
     23 O16          6.6090     7.6060    16.3380 os         1 RI4      -0.481000
     24 N18          4.7600     4.9410    16.6420 nd         1 RI4      -0.398000
     25 N19          4.0540     4.8720    15.4870 nd         1 RI4      -0.054000
     26 N20          3.3370     5.9300    15.3220 nc         1 RI4      -0.202800
     27 N21          3.5710     6.7070    16.3860 na         1 RI4      -0.201700
     28 H29          3.4910     7.9400    22.5140 hc         1 RI4       0.054700
     29 H28          2.5630     6.6690    21.7520 hc         1 RI4       0.054700
     30 H35          7.2090     7.1710    24.0390 hc         1 RI4       0.046700
     31 H34          6.9100     5.9610    22.8050 hc         1 RI4       0.046700
     32 H37          7.3110     8.4040    22.0420 hc         1 RI4       0.061700
     33 H36          5.7060     8.7610    22.6700 hc         1 RI4       0.061700
     34 H39          7.3950     5.1220    17.4350 hc         1 RI4       0.069200
     35 H44          7.5010     7.5820    14.4760 h1         1 RI4       0.053200
     36 H43          6.5390     6.1440    14.8760 h1         1 RI4       0.053200
     37 H46          3.2910     3.9810    19.3980 ha         1 RI4       0.121000
     38 H47          1.0240     3.0680    19.0340 ha         1 RI4       0.118500
     39 H48         -0.9090     4.6010    18.7990 ha         1 RI4       0.117000
     40 H49         -0.5590     7.0510    18.9410 ha         1 RI4       0.118500
     41 H50          1.7090     7.9570    19.3200 ha         1 RI4       0.121000
     42 H31          3.2120     5.6840    23.7550 hc         1 RI4       0.045200
     43 H30          4.3750     5.0240    22.6190 hc         1 RI4       0.045200
     44 H32          4.8210     7.3520    24.5470 hc         1 RI4       0.039700
     45 H33          5.4120     5.7160    24.7710 hc         1 RI4       0.039700
     46 H38          7.8850     8.0870    17.8900 h1         1 RI4       0.072700
     47 H42          9.3380     6.8590    15.8370 hc         1 RI4       0.056700
     48 H41          8.7170     5.2640    15.3850 hc         1 RI4       0.056700
     49 H45          3.1250     7.6080    16.4850 hn         1 RI4       0.388000
     50 H40          8.8640     5.9100    18.0360 hc         1 RI4       0.069200
@<TRIPOS>BOND
     1     1     2 ar  
     2     1    18 ar  
     3     1    21 1   
     4     2    10 1   
     5     2    17 ar  
     6     3     4 ar  
     7     3     5 1   
     8     3    17 ar  
     9     4     7 1   
    10     4    18 ar  
    11     5    19 1   
    12     5    28 1   
    13     5    29 1   
    14     6     7 1   
    15     6    20 1   
    16     6    30 1   
    17     6    31 1   
    18     7    32 1   
    19     7    33 1   
    20     8    21 1   
    21     8    22 1   
    22     8    34 1   
    23     8    50 1   
    24     9    22 1   
    25     9    23 1   
    26     9    35 1   
    27     9    36 1   
    28    10    24 2   
    29    10    27 1   
    30    11    12 ar  
    31    11    16 ar  
    32    11    17 1   
    33    12    13 ar  
    34    12    37 1   
    35    13    14 ar  
    36    13    38 1   
    37    14    15 ar  
    38    14    39 1   
    39    15    16 ar  
    40    15    40 1   
    41    16    41 1   
    42    19    20 1   
    43    19    42 1   
    44    19    43 1   
    45    20    44 1   
    46    20    45 1   
    47    21    23 1   
    48    21    46 1   
    49    22    47 1   
    50    22    48 1   
    51    24    25 1   
    52    25    26 2   
    53    26    27 1   
    54    27    49 1   
@<TRIPOS>SUBSTRUCTURE
     1 RI4         1 TEMP              0 ****  ****    0 ROOT
