@<TRIPOS>MOLECULE
RI4
   50    54     1     0     0
SMALL
No Charge or Current Charge


@<TRIPOS>ATOM
      1 C01          6.1930     7.1260    18.6710 ca         1 RI4       0.390300
      2 C02          4.8970     6.5800    18.4860 ca         1 RI4      -0.175500
      3 C04          4.4430     7.0000    20.8460 ca         1 RI4      -0.108300
      4 C05          5.7580     7.4990    20.9420 ca         1 RI4       0.381300
      5 C07          3.5500     6.9440    22.0940 c3         1 RI4      -0.028100
      6 C10          6.5080     6.8910    23.3190 c3         1 RI4      -0.069400
      7 C11          6.3530     8.0010    22.2540 c3         1 RI4      -0.131700
      8 C13          7.9660     5.9460    17.3090 c5         1 RI4      -0.102400
      9 C15          7.3500     6.8930    15.2040 c5         1 RI4       0.152600
     10 C17          4.4720     6.1200    17.1700 cc         1 RI4       0.491000
     11 C22          2.6220     5.9920    19.3820 cp         1 RI4      -0.069000
     12 C23          2.4080     4.6030    19.2290 ca         1 RI4      -0.094500
     13 C24          1.1140     4.0920    19.0250 ca         1 RI4      -0.108500
     14 C25          0.0150     4.9660    18.9700 ca         1 RI4      -0.099000
     15 C26          0.2100     6.3490    19.1180 ca         1 RI4      -0.108500
     16 C27          1.5040     6.8580    19.3210 ca         1 RI4      -0.094500
     17 C03          3.9970     6.5350    19.5810 cp         1 RI4       0.024000
     18 N06          6.5950     7.5640    19.8870 nb         1 RI4      -0.684000
     19 C08          4.0740     5.9620    23.1650 c3         1 RI4      -0.069400
     20 C09          5.2010     6.5270    24.0580 c3         1 RI4      -0.076400
     21 C12          7.2280     7.2920    17.5300 c5         1 RI4       0.110000
     22 C14          8.5590     6.2200    15.9060 c5         1 RI4      -0.107400
     23 O16          6.6580     7.6350    16.2390 os         1 RI4      -0.481000
     24 N18          4.7020     4.9400    16.6320 nd         1 RI4      -0.398000
     25 N19          3.9900     4.9040    15.4550 nd         1 RI4      -0.054000
     26 N20          3.2950     5.9950    15.2760 nc         1 RI4      -0.202800
     27 N21          3.5800     6.7580    16.3620 na         1 RI4      -0.201700
     28 H29          3.4410     7.9430    22.5320 hc         1 RI4       0.054700
     29 H28          2.5310     6.6360    21.8410 hc         1 RI4       0.054700
     30 H35          7.2360     7.2290    24.0680 hc         1 RI4       0.046700
     31 H34          6.9360     5.9930    22.8560 hc         1 RI4       0.046700
     32 H37          7.3440     8.4350    22.0730 hc         1 RI4       0.061700
     33 H36          5.7450     8.8200    22.6570 hc         1 RI4       0.061700
     34 H39          7.2930     5.0830    17.3090 hc         1 RI4       0.069200
     35 H44          7.6520     7.5680    14.3920 h1         1 RI4       0.053200
     36 H43          6.6600     6.1420    14.7940 h1         1 RI4       0.053200
     37 H46          3.2540     3.9200    19.2690 ha         1 RI4       0.121000
     38 H47          0.9650     3.0210    18.9090 ha         1 RI4       0.118500
     39 H48         -0.9860     4.5710    18.8110 ha         1 RI4       0.117000
     40 H49         -0.6400     7.0260    19.0750 ha         1 RI4       0.118500
     41 H50          1.6470     7.9310    19.4340 ha         1 RI4       0.121000
     42 H31          3.2360     5.6870    23.8180 hc         1 RI4       0.045200
     43 H30          4.4070     5.0340    22.6840 hc         1 RI4       0.045200
     44 H32          4.8300     7.4120    24.5890 hc         1 RI4       0.039700
     45 H33          5.4370     5.7830    24.8300 hc         1 RI4       0.039700
     46 H38          7.9510     8.0770    17.7920 h1         1 RI4       0.072700
     47 H42          9.4180     6.9000    15.9540 hc         1 RI4       0.056700
     48 H41          8.8860     5.3070    15.3970 hc         1 RI4       0.056700
     49 H45          3.1710     7.6700    16.5130 hn         1 RI4       0.388000
     50 H40          8.7370     5.7630    18.0660 hc         1 RI4       0.069200
@<TRIPOS>BOND
     1     1     2 ar  
     2     1    18 ar  
     3     1    21 1   
     4     2    10 1   
     5     2    17 ar  
     6     3     4 ar  
     7     3     5 1   
     8     3    17 ar  
     9     4     7 1   
    10     4    18 ar  
    11     5    19 1   
    12     5    28 1   
    13     5    29 1   
    14     6     7 1   
    15     6    20 1   
    16     6    30 1   
    17     6    31 1   
    18     7    32 1   
    19     7    33 1   
    20     8    21 1   
    21     8    22 1   
    22     8    34 1   
    23     8    50 1   
    24     9    22 1   
    25     9    23 1   
    26     9    35 1   
    27     9    36 1   
    28    10    24 2   
    29    10    27 1   
    30    11    12 ar  
    31    11    16 ar  
    32    11    17 1   
    33    12    13 ar  
    34    12    37 1   
    35    13    14 ar  
    36    13    38 1   
    37    14    15 ar  
    38    14    39 1   
    39    15    16 ar  
    40    15    40 1   
    41    16    41 1   
    42    19    20 1   
    43    19    42 1   
    44    19    43 1   
    45    20    44 1   
    46    20    45 1   
    47    21    23 1   
    48    21    46 1   
    49    22    47 1   
    50    22    48 1   
    51    24    25 1   
    52    25    26 2   
    53    26    27 1   
    54    27    49 1   
@<TRIPOS>SUBSTRUCTURE
     1 RI4         1 TEMP              0 ****  ****    0 ROOT
