@<TRIPOS>MOLECULE
RI5
   37    41     1     0     0
SMALL
No Charge or Current Charge


@<TRIPOS>ATOM
      1 C01          4.1450    -0.0140     0.2370 c3         1 RI5      -0.053900
      2 C02          2.9950    -0.0600    -0.7590 c2         1 RI5      -0.086400
      3 C03          3.0870     0.5940    -1.9320 c2         1 RI5      -0.313000
      4 C04          1.8400    -1.0490    -0.4880 c5         1 RI5      -0.046500
      5 C05          0.5790    -1.0340    -1.4010 c5         1 RI5       0.156300
      6 C06         -0.1050     0.4030    -1.4850 c5         1 RI5       0.162300
      7 C07         -0.3080     1.1420    -0.0890 c5         1 RI5      -0.057000
      8 C08          0.5440     0.5450     1.1160 c5         1 RI5       0.220000
      9 C09          1.0880    -0.9300     0.8740 c5         1 RI5      -0.208700
     10 C10         -0.0640    -1.9140     0.6320 c          1 RI5       0.650100
     11 O11         -0.4450    -2.7890     1.3930 o          1 RI5      -0.476000
     12 O12         -0.3080    -1.9540    -0.7120 os         1 RI5      -0.413100
     13 C13         -0.5030     0.4730     2.2930 c5         1 RI5      -0.125400
     14 C14         -1.8630     0.2390     1.6100 cx         1 RI5       0.129300
     15 C15         -1.7300     0.7070     0.1960 cx         1 RI5      -0.062000
     16 O16         -2.5350     1.4360     1.1550 op         1 RI5      -0.375000
     17 C17         -2.3640     0.0740    -1.0020 c          1 RI5       0.702100
     18 O18         -3.5620    -0.1090    -1.1670 o          1 RI5      -0.451000
     19 O19         -1.4520     0.1670    -2.0200 os         1 RI5      -0.411100
     20 O20          1.5960     1.4160     1.5040 oh         1 RI5      -0.632000
     21 C21         -0.2520     2.6910    -0.2310 c3         1 RI5      -0.065100
     22 H01          4.9120     0.7120    -0.0580 hc         1 RI5       0.042700
     23 H01A         3.8230     0.2480     1.2480 hc         1 RI5       0.042700
     24 H01B         4.6340    -0.9930     0.3020 hc         1 RI5       0.042700
     25 H03          2.3710     0.4930    -2.7440 ha         1 RI5       0.167500
     26 H03A         3.9410     1.2360    -2.1510 ha         1 RI5       0.167500
     27 H04          2.2820    -2.0520    -0.5500 hc         1 RI5       0.076700
     28 H05          0.7910    -1.4200    -2.4080 h1         1 RI5       0.110700
     29 H06          0.4300     1.0500    -2.1890 h1         1 RI5       0.098700
     30 H09          1.6810    -1.2850     1.7240 hc         1 RI5       0.093700
     31 H13         -0.2680    -0.3030     3.0300 hc         1 RI5       0.080700
     32 H13A        -0.5310     1.4170     2.8520 hc         1 RI5       0.080700
     33 H14         -2.5110    -0.6060     1.8550 h1         1 RI5       0.136700
     34 HO20         1.9830     1.0480     2.3250 ho         1 RI5       0.452000
     35 H21         -0.9650     3.0500    -0.9840 hc         1 RI5       0.053033
     36 H21A        -0.4870     3.1940     0.7150 hc         1 RI5       0.053033
     37 H21B         0.7460     3.0230    -0.5420 hc         1 RI5       0.053033
@<TRIPOS>BOND
     1     1     2 1   
     2     1    22 1   
     3     1    23 1   
     4     1    24 1   
     5     2     3 2   
     6     2     4 1   
     7     3    25 1   
     8     3    26 1   
     9     4     5 1   
    10     4     9 1   
    11     4    27 1   
    12     5     6 1   
    13     5    12 1   
    14     5    28 1   
    15     6     7 1   
    16     6    19 1   
    17     6    29 1   
    18     7     8 1   
    19     7    15 1   
    20     7    21 1   
    21     8     9 1   
    22     8    13 1   
    23     8    20 1   
    24     9    10 1   
    25     9    30 1   
    26    10    11 2   
    27    10    12 1   
    28    13    14 1   
    29    13    31 1   
    30    13    32 1   
    31    14    15 1   
    32    14    16 1   
    33    14    33 1   
    34    15    16 1   
    35    15    17 1   
    36    17    18 2   
    37    17    19 1   
    38    20    34 1   
    39    21    35 1   
    40    21    36 1   
    41    21    37 1   
@<TRIPOS>SUBSTRUCTURE
     1 RI5         1 TEMP              0 ****  ****    0 ROOT
