@<TRIPOS>MOLECULE
RI5
   37    41     1     0     0
SMALL
abcg2


@<TRIPOS>ATOM
      1 C01          4.1120    -0.0690     0.1970 c3         1 RI5      -0.053900
      2 C02          2.9690    -0.0010    -0.7740 c2         1 RI5      -0.086400
      3 C03          3.0580     0.7240    -1.8870 c2         1 RI5      -0.313000
      4 C04          1.8440    -0.9530    -0.4810 c5         1 RI5      -0.046500
      5 C05          0.6130    -0.9930    -1.3810 c5         1 RI5       0.156300
      6 C06         -0.1160     0.3410    -1.4420 c5         1 RI5       0.162300
      7 C07         -0.3060     1.0610    -0.0820 c5         1 RI5      -0.057000
      8 C08          0.5070     0.5220     1.1490 c5         1 RI5       0.220000
      9 C09          1.1120    -0.8780     0.8680 c5         1 RI5      -0.208700
     10 C10          0.0230    -1.8970     0.6150 c          1 RI5       0.650100
     11 O11         -0.5590    -2.6010     1.3900 o          1 RI5      -0.476000
     12 O12         -0.2440    -1.9270    -0.6980 os         1 RI5      -0.413100
     13 C13         -0.5350     0.4210     2.2980 c5         1 RI5      -0.125400
     14 C14         -1.8720     0.2200     1.6220 cx         1 RI5       0.129300
     15 C15         -1.7250     0.6580     0.2340 cx         1 RI5      -0.062000
     16 O16         -2.4540     1.4240     1.1460 op         1 RI5      -0.375000
     17 C17         -2.3720     0.1520    -1.0040 c          1 RI5       0.702100
     18 O18         -3.5220    -0.1200    -1.1920 o          1 RI5      -0.451000
     19 O19         -1.4400     0.0880    -1.9530 os         1 RI5      -0.411100
     20 O20          1.5420     1.4120     1.4370 oh         1 RI5      -0.632000
     21 C21         -0.1700     2.5680    -0.2740 c3         1 RI5      -0.065100
     22 H01          4.9420     0.5580    -0.1270 hc         1 RI5       0.042700
     23 H01A         3.8240     0.2490     1.1980 hc         1 RI5       0.042700
     24 H01B         4.4800    -1.0950     0.2820 hc         1 RI5       0.042700
     25 H03          2.3030     0.7420    -2.6600 ha         1 RI5       0.167500
     26 H03A         3.9360     1.3250    -2.0830 ha         1 RI5       0.167500
     27 H04          2.2980    -1.9520    -0.5310 hc         1 RI5       0.076700
     28 H05          0.8010    -1.3840    -2.3800 h1         1 RI5       0.110700
     29 H06          0.3700     0.9930    -2.1630 h1         1 RI5       0.098700
     30 H09          1.7080    -1.1890     1.7270 hc         1 RI5       0.093700
     31 H13         -0.3050    -0.3910     2.9890 hc         1 RI5       0.080700
     32 H13A        -0.5460     1.3450     2.8800 hc         1 RI5       0.080700
     33 H14         -2.5680    -0.5510     1.9350 h1         1 RI5       0.136700
     34 HO20         1.9230     1.1860     2.2930 ho         1 RI5       0.452000
     35 H21         -0.8540     2.9110    -1.0520 hc         1 RI5       0.053033
     36 H21A        -0.4000     3.1170     0.6370 hc         1 RI5       0.053033
     37 H21B         0.8400     2.8280    -0.5850 hc         1 RI5       0.053033
@<TRIPOS>BOND
     1     1     2 1   
     2     1    22 1   
     3     1    23 1   
     4     1    24 1   
     5     2     3 2   
     6     2     4 1   
     7     3    25 1   
     8     3    26 1   
     9     4     5 1   
    10     4     9 1   
    11     4    27 1   
    12     5     6 1   
    13     5    12 1   
    14     5    28 1   
    15     6     7 1   
    16     6    19 1   
    17     6    29 1   
    18     7     8 1   
    19     7    15 1   
    20     7    21 1   
    21     8     9 1   
    22     8    13 1   
    23     8    20 1   
    24     9    10 1   
    25     9    30 1   
    26    10    11 2   
    27    10    12 1   
    28    13    14 1   
    29    13    31 1   
    30    13    32 1   
    31    14    15 1   
    32    14    16 1   
    33    14    33 1   
    34    15    16 1   
    35    15    17 1   
    36    17    18 2   
    37    17    19 1   
    38    20    34 1   
    39    21    35 1   
    40    21    36 1   
    41    21    37 1   
@<TRIPOS>SUBSTRUCTURE
     1 RI5         1 TEMP              0 ****  ****    0 ROOT
