@<TRIPOS>MOLECULE
RI6
   50    53     1     0     0
SMALL
No Charge or Current Charge


@<TRIPOS>ATOM
      1 N1         -21.9570     6.7190    29.0760 n3         1 RI6      -0.789600
      2 N3         -17.4370     3.4430    24.2900 nb         1 RI6      -0.650000
      3 C4         -21.8370     4.3290    28.4640 c6         1 RI6      -0.093400
      4 C5         -20.3620     4.3330    28.0150 c          1 RI6       0.610100
      5 C6         -18.9550     4.4420    25.9110 ca         1 RI6      -0.077000
      6 C7         -18.5770     3.4190    25.0160 ca         1 RI6       0.317900
      7 C8         -16.6260     4.5160    24.4300 ca         1 RI6       0.364900
      8 C10        -16.0480     6.7030    25.3620 ca         1 RI6      -0.077000
      9 C13        -18.4380     6.6890    26.8490 ca         1 RI6      -0.084000
     10 C15        -21.9910     3.9510    29.9420 ca         1 RI6      -0.055300
     11 C17        -21.9820     2.2730    31.7080 ca         1 RI6       0.125000
     12 C20        -22.2370     4.9600    30.9000 ca         1 RI6      -0.059300
     13 C21        -22.4080     6.4250    30.4700 c6         1 RI6       0.234100
     14 Cl1        -21.8210     0.5950    32.2140 cl         1 RI6      -0.208000
     15 C16        -21.8640     2.6090    30.3500 ca         1 RI6      -0.091000
     16 C18        -22.2280     3.2710    32.6630 ca         1 RI6      -0.090000
     17 C19        -22.3570     4.6120    32.2600 ca         1 RI6      -0.100000
     18 C2         -22.2550     8.1280    28.6470 c3         1 RI6       0.109800
     19 C1         -21.4520     9.2550    29.3560 c          1 RI6       0.573100
     20 O          -21.8800    10.3900    29.5320 o          1 RI6      -0.628100
     21 N          -20.2020     8.8660    29.7780 ns         1 RI6      -0.491900
     22 C          -19.2400     9.7260    30.4680 c3         1 RI6       0.095300
     23 C3         -22.4720     5.6980    28.1350 c6         1 RI6       0.204800
     24 O1         -19.4250     4.3380    28.8090 o          1 RI6      -0.569100
     25 N2         -20.1630     4.2980    26.6430 ns         1 RI6      -0.175000
     26 C14        -18.1170     5.5790    26.0330 ca         1 RI6      -0.005000
     27 C12        -17.5620     7.7870    26.9280 ca         1 RI6      -0.083000
     28 C11        -16.3680     7.7900    26.1910 ca         1 RI6       0.123000
     29 Cl         -15.2780     9.1670    26.2940 cl         1 RI6      -0.198000
     30 C9         -16.9230     5.6020    25.2770 ca         1 RI6      -0.087000
     31 H2         -22.3670     3.6270    27.8060 hc         1 RI6       0.065700
     32 H3         -19.2060     2.5380    24.8900 h4         1 RI6       0.024100
     33 H4         -15.7140     4.5090    23.8330 h4         1 RI6       0.026100
     34 H5         -15.1270     6.7220    24.7850 ha         1 RI6       0.135000
     35 H6         -19.3620     6.7230    27.4170 ha         1 RI6       0.124000
     36 H7         -21.8650     7.0610    31.1840 h1         1 RI6       0.051700
     37 H8         -23.4740     6.6770    30.5770 h1         1 RI6       0.051700
     38 H9         -21.6690     1.8290    29.6190 ha         1 RI6       0.127000
     39 H10        -22.3200     3.0060    33.7140 ha         1 RI6       0.134000
     40 H11        -22.5530     5.3810    33.0040 ha         1 RI6       0.121000
     41 H12        -23.3230     8.3510    28.7730 h1         1 RI6       0.062200
     42 H13        -22.0240     8.2400    27.5800 h1         1 RI6       0.062200
     43 H14        -19.9860     7.8840    29.6320 hn         1 RI6       0.357500
     44 H15        -18.3240     9.1580    30.6760 h1         1 RI6       0.041367
     45 H16        -18.9960    10.5880    29.8350 h1         1 RI6       0.041367
     46 H17        -19.6720    10.0770    31.4140 h1         1 RI6       0.041367
     47 H18        -22.2430     5.9710    27.0940 h1         1 RI6       0.044700
     48 H19        -23.5670     5.6240    28.2130 h1         1 RI6       0.044700
     49 H20        -21.0010     4.2060    26.0810 hn         1 RI6       0.157000
     50 H21        -17.8120     8.6370    27.5580 ha         1 RI6       0.141000
@<TRIPOS>BOND
     1     1    13 1   
     2     1    18 1   
     3     1    23 1   
     4     2     6 ar  
     5     2     7 ar  
     6     3     4 1   
     7     3    10 1   
     8     3    23 1   
     9     3    31 1   
    10     4    24 2   
    11     4    25 1   
    12     5     6 ar  
    13     5    25 1   
    14     5    26 ar  
    15     6    32 1   
    16     7    30 ar  
    17     7    33 1   
    18     8    28 ar  
    19     8    30 ar  
    20     8    34 1   
    21     9    26 ar  
    22     9    27 ar  
    23     9    35 1   
    24    10    12 ar  
    25    10    15 ar  
    26    11    14 1   
    27    11    15 ar  
    28    11    16 ar  
    29    12    13 1   
    30    12    17 ar  
    31    13    36 1   
    32    13    37 1   
    33    15    38 1   
    34    16    17 ar  
    35    16    39 1   
    36    17    40 1   
    37    18    19 1   
    38    18    41 1   
    39    18    42 1   
    40    19    20 2   
    41    19    21 1   
    42    21    22 1   
    43    21    43 1   
    44    22    44 1   
    45    22    45 1   
    46    22    46 1   
    47    23    47 1   
    48    23    48 1   
    49    25    49 1   
    50    26    30 ar  
    51    27    28 ar  
    52    27    50 1   
    53    28    29 1   
@<TRIPOS>SUBSTRUCTURE
     1 RI6         1 TEMP              0 ****  ****    0 ROOT
