@<TRIPOS>MOLECULE
RI6
   50    53     1     0     0
SMALL
abcg2


@<TRIPOS>ATOM
      1 N1         -22.1460     6.7470    29.1910 n3         1 RI6      -0.789600
      2 N3         -16.8490     3.5440    25.3200 nb         1 RI6      -0.650000
      3 C4         -21.9060     4.4620    28.4450 c6         1 RI6      -0.093400
      4 C5         -20.4270     4.6250    28.0970 c          1 RI6       0.610100
      5 C6         -18.8230     4.5490    26.2580 ca         1 RI6      -0.077000
      6 C7         -18.0950     3.4600    25.8480 ca         1 RI6       0.317900
      7 C8         -16.3010     4.7320    25.2150 ca         1 RI6       0.364900
      8 C10        -16.3220     7.1920    25.4580 ca         1 RI6      -0.077000
      9 C13        -18.9440     7.0410    26.4600 ca         1 RI6      -0.084000
     10 C15        -22.0870     4.0370    29.8820 ca         1 RI6      -0.055300
     11 C17        -22.0820     2.3010    31.5440 ca         1 RI6       0.125000
     12 C20        -22.4120     4.9730    30.8640 ca         1 RI6      -0.059300
     13 C21        -22.6160     6.4290    30.5250 c6         1 RI6       0.234100
     14 CL1        -21.8710     0.6120    31.9670 cl         1 RI6      -0.208000
     15 C16        -21.9220     2.6950    30.2270 ca         1 RI6      -0.091000
     16 C18        -22.4070     3.2160    32.5370 ca         1 RI6      -0.090000
     17 C19        -22.5700     4.5470    32.1830 ca         1 RI6      -0.100000
     18 C2         -22.1690     8.1530    28.8690 c3         1 RI6       0.109800
     19 C1         -20.8920     8.8840    29.2900 c          1 RI6       0.573100
     20 O          -20.8450    10.1190    29.3020 o          1 RI6      -0.628100
     21 N          -19.8590     8.0950    29.5980 ns         1 RI6      -0.491900
     22 C          -18.5500     8.6100    29.9450 c3         1 RI6       0.095300
     23 C3         -22.6140     5.8060    28.1970 c6         1 RI6       0.204800
     24 O1         -19.5880     5.0140    28.9020 o          1 RI6      -0.569100
     25 N2         -20.1220     4.3680    26.7980 ns         1 RI6      -0.175000
     26 C14        -18.2670     5.8480    26.1220 ca         1 RI6      -0.005000
     27 C12        -18.3280     8.2550    26.3130 ca         1 RI6      -0.083000
     28 C11        -17.0090     8.3180    25.8200 ca         1 RI6       0.123000
     29 CL         -16.2530     9.8880    25.6700 cl         1 RI6      -0.198000
     30 C9         -16.9490     5.9320    25.5980 ca         1 RI6      -0.087000
     31 H2         -22.3420     3.7080    27.7860 hc         1 RI6       0.065700
     32 H3         -18.5170     2.4660    25.9430 h4         1 RI6       0.024100
     33 H4         -15.2950     4.7860    24.8090 h4         1 RI6       0.026100
     34 H5         -15.3150     7.2500    25.0680 ha         1 RI6       0.135000
     35 H6         -19.9540     6.9990    26.8340 ha         1 RI6       0.124000
     36 H7         -22.0760     7.0450    31.2470 h1         1 RI6       0.051700
     37 H8         -23.6870     6.6760    30.6390 h1         1 RI6       0.051700
     38 H9         -21.6700     1.9680    29.4660 ha         1 RI6       0.127000
     39 H10        -22.5270     2.8950    33.5620 ha         1 RI6       0.134000
     40 H11        -22.8230     5.2710    32.9500 ha         1 RI6       0.121000
     41 H12        -23.0170     8.6890    29.3150 h1         1 RI6       0.062200
     42 H13        -22.2490     8.2790    27.7870 h1         1 RI6       0.062200
     43 H14        -20.0020     7.0960    29.5030 hn         1 RI6       0.357500
     44 H15        -17.8930     7.7680    30.1540 h1         1 RI6       0.041367
     45 H16        -18.1250     9.1950    29.1270 h1         1 RI6       0.041367
     46 H17        -18.6040     9.2470    30.8300 h1         1 RI6       0.041367
     47 H18        -22.3740     6.1790    27.2030 h1         1 RI6       0.044700
     48 H19        -23.7030     5.6450    28.2410 h1         1 RI6       0.044700
     49 H20        -20.8230     3.9390    26.2120 hn         1 RI6       0.157000
     50 H21        -18.8450     9.1680    26.5760 ha         1 RI6       0.141000
@<TRIPOS>BOND
     1     1    13 1   
     2     1    18 1   
     3     1    23 1   
     4     2     6 ar  
     5     2     7 ar  
     6     3     4 1   
     7     3    10 1   
     8     3    23 1   
     9     3    31 1   
    10     4    24 2   
    11     4    25 1   
    12     5     6 ar  
    13     5    25 1   
    14     5    26 ar  
    15     6    32 1   
    16     7    30 ar  
    17     7    33 1   
    18     8    28 ar  
    19     8    30 ar  
    20     8    34 1   
    21     9    26 ar  
    22     9    27 ar  
    23     9    35 1   
    24    10    12 ar  
    25    10    15 ar  
    26    11    14 1   
    27    11    15 ar  
    28    11    16 ar  
    29    12    13 1   
    30    12    17 ar  
    31    13    36 1   
    32    13    37 1   
    33    15    38 1   
    34    16    17 ar  
    35    16    39 1   
    36    17    40 1   
    37    18    19 1   
    38    18    41 1   
    39    18    42 1   
    40    19    20 2   
    41    19    21 1   
    42    21    22 1   
    43    21    43 1   
    44    22    44 1   
    45    22    45 1   
    46    22    46 1   
    47    23    47 1   
    48    23    48 1   
    49    25    49 1   
    50    26    30 ar  
    51    27    28 ar  
    52    27    50 1   
    53    28    29 1   
@<TRIPOS>SUBSTRUCTURE
     1 RI6         1 TEMP              0 ****  ****    0 ROOT
