@<TRIPOS>MOLECULE
RI7
   42    45     1     0     0
SMALL
abcg2


@<TRIPOS>ATOM
      1 C18        -46.2600   -30.5810     5.3870 ca         1 RI7       0.194500
      2 C15        -48.5800   -29.0380     2.9830 ca         1 RI7      -0.047000
      3 C14        -49.9630   -29.1310     3.0460 ca         1 RI7      -0.168000
      4 C13        -50.5510   -29.9060     4.0400 ca         1 RI7       0.189000
      5 C12        -49.8340   -30.5840     5.0050 ca         1 RI7      -0.173000
      6 C11        -48.4510   -30.4710     4.9290 ca         1 RI7       0.002800
      7 C10        -47.7910   -29.7310     3.9080 cp         1 RI7      -0.065000
      8 C20        -44.0690   -30.2470     5.5130 ca         1 RI7       0.188900
      9 C01        -46.4010   -33.3320     3.1050 c3         1 RI7       0.149900
     10 C04        -44.5040   -31.3230     0.6420 c3         1 RI7      -0.160400
     11 C05        -45.0920   -29.9770     0.1810 c6         1 RI7       0.154300
     12 C06        -45.8680   -29.2620     1.2830 c6         1 RI7       0.185800
     13 C08        -45.1330   -29.4360     3.6280 ca         1 RI7       0.437900
     14 C09        -46.3690   -29.8450     4.1860 cp         1 RI7      -0.230000
     15 C22        -43.6640   -28.4000     1.9710 c6         1 RI7       0.191800
     16 C23        -43.7030   -28.0370     0.5000 c6         1 RI7       0.140600
     17 F16        -51.9080   -29.9840     4.0740 f          1 RI7      -0.181000
     18 N07        -44.9820   -28.9030     2.3850 nh         1 RI7      -0.778300
     19 N17        -47.5030   -30.9850     5.7890 na         1 RI7      -0.335300
     20 N19        -45.1350   -30.8200     6.0660 nb         1 RI7      -0.237000
     21 N21        -44.0080   -29.5850     4.3620 nb         1 RI7      -0.287000
     22 O02        -45.3730   -32.5560     2.4550 os         1 RI7      -0.443100
     23 O24        -44.0260   -29.1630    -0.3220 os         1 RI7      -0.458000
     24 O25        -46.5470   -32.5950     0.5390 o          1 RI7      -0.488000
     25 H151       -48.1350   -28.4110     2.2270 ha         1 RI7       0.121000
     26 H141       -50.5910   -28.6040     2.3400 ha         1 RI7       0.135000
     27 H121       -50.3300   -31.1530     5.7800 ha         1 RI7       0.139000
     28 H201       -43.1330   -30.3440     6.0560 h5         1 RI7       0.050100
     29 H012       -46.0510   -33.4800     4.1220 h1         1 RI7       0.052367
     30 H013       -47.3390   -32.7800     3.1020 h1         1 RI7       0.052367
     31 H011       -46.5300   -34.2880     2.5990 h1         1 RI7       0.052367
     32 H041       -43.7390   -31.1650     1.3990 hc         1 RI7       0.087200
     33 H042       -44.0410   -31.8040    -0.2210 hc         1 RI7       0.087200
     34 H051       -45.7820   -30.1590    -0.6460 h1         1 RI7       0.085700
     35 H061       -46.3530   -28.3780     0.8660 h1         1 RI7       0.072700
     36 H062       -46.6480   -29.9240     1.6410 h1         1 RI7       0.072700
     37 H222       -42.8940   -29.1540     2.1460 h1         1 RI7       0.068200
     38 H221       -43.4010   -27.5210     2.5620 h1         1 RI7       0.068200
     39 H231       -42.7160   -27.7020     0.1850 h1         1 RI7       0.058700
     40 H232       -44.4130   -27.2230     0.3210 h1         1 RI7       0.058700
     41 H171       -47.6920   -31.4910     6.6390 hn         1 RI7       0.369000
     42 C03        -45.5800   -32.2310     1.1750 c          1 RI7       0.585100
@<TRIPOS>BOND
     1     1    14 ar  
     2     1    19 1   
     3     1    20 ar  
     4     2     3 ar  
     5     2     7 ar  
     6     2    25 1   
     7     3     4 ar  
     8     3    26 1   
     9     4     5 ar  
    10     4    17 1   
    11     5     6 ar  
    12     5    27 1   
    13     6     7 ar  
    14     6    19 1   
    15     7    14 1   
    16     8    20 ar  
    17     8    21 ar  
    18     8    28 1   
    19     9    22 1   
    20     9    29 1   
    21     9    30 1   
    22     9    31 1   
    23    10    11 1   
    24    10    32 1   
    25    10    33 1   
    26    10    42 1   
    27    11    12 1   
    28    11    23 1   
    29    11    34 1   
    30    12    18 1   
    31    12    35 1   
    32    12    36 1   
    33    13    14 ar  
    34    13    18 1   
    35    13    21 ar  
    36    15    16 1   
    37    15    18 1   
    38    15    37 1   
    39    15    38 1   
    40    16    23 1   
    41    16    39 1   
    42    16    40 1   
    43    19    41 1   
    44    22    42 1   
    45    24    42 2   
@<TRIPOS>SUBSTRUCTURE
     1 RI7         1 TEMP              0 ****  ****    0 ROOT
