@<TRIPOS>MOLECULE
RI7
   42    45     1     0     0
SMALL
No Charge or Current Charge


@<TRIPOS>ATOM
      1 C18        -45.9960   -30.5720     5.4880 ca         1 RI7       0.194500
      2 C15        -48.4730   -29.0290     3.1890 ca         1 RI7      -0.047000
      3 C14        -49.8790   -29.1560     3.2680 ca         1 RI7      -0.168000
      4 C13        -50.4740   -29.9530     4.2750 ca         1 RI7       0.189000
      5 C12        -49.6820   -30.6250     5.2270 ca         1 RI7      -0.173000
      6 C11        -48.2970   -30.4830     5.1150 ca         1 RI7       0.002800
      7 C10        -47.6820   -29.7310     4.1220 cp         1 RI7      -0.065000
      8 C20        -43.7620   -30.2590     5.2460 ca         1 RI7       0.188900
      9 C01        -47.2170   -33.2930     2.6610 c3         1 RI7       0.149900
     10 C04        -44.3800   -31.6200     0.8750 c3         1 RI7      -0.160400
     11 C05        -44.6850   -30.1770     0.3860 c6         1 RI7       0.154300
     12 C06        -45.7850   -29.4380     1.2380 c6         1 RI7       0.185800
     13 C08        -45.1190   -29.3050     3.6300 ca         1 RI7       0.437900
     14 C09        -46.2350   -29.8110     4.3390 cp         1 RI7      -0.230000
     15 C22        -44.1590   -27.6680     1.9200 c6         1 RI7       0.191800
     16 C23        -43.5060   -28.0530     0.5500 c6         1 RI7       0.140600
     17 F16        -51.8190   -30.0540     4.3360 f          1 RI7      -0.181000
     18 N07        -45.2070   -28.6590     2.3740 nh         1 RI7      -0.778300
     19 N17        -47.2660   -30.9760     5.9210 na         1 RI7      -0.335300
     20 N19        -44.7660   -30.8080     5.9650 nb         1 RI7      -0.237000
     21 N21        -43.8750   -29.5350     4.1080 nb         1 RI7      -0.287000
     22 O02        -46.0060   -32.5820     2.3490 os         1 RI7      -0.443100
     23 O24        -43.4020   -29.4930     0.4370 os         1 RI7      -0.458000
     24 O25        -46.2340   -32.9780     0.0980 o          1 RI7      -0.488000
     25 H151       -48.0210   -28.3920     2.4340 ha         1 RI7       0.121000
     26 H141       -50.5110   -28.6310     2.5570 ha         1 RI7       0.135000
     27 H121       -50.1340   -31.2190     6.0160 ha         1 RI7       0.139000
     28 H201       -42.7510   -30.4330     5.6130 h5         1 RI7       0.050100
     29 H012       -47.3870   -33.2970     3.7450 h1         1 RI7       0.052367
     30 H013       -48.0830   -32.8170     2.1840 h1         1 RI7       0.052367
     31 H011       -47.1590   -34.3350     2.3200 h1         1 RI7       0.052367
     32 H041       -43.8790   -31.5560     1.8470 hc         1 RI7       0.087200
     33 H042       -43.7210   -32.1110     0.1520 hc         1 RI7       0.087200
     34 H051       -45.0290   -30.2260    -0.6580 h1         1 RI7       0.085700
     35 H061       -46.3260   -28.7480     0.5730 h1         1 RI7       0.072700
     36 H062       -46.5450   -30.1480     1.5900 h1         1 RI7       0.072700
     37 H222       -43.3550   -27.5660     2.6620 h1         1 RI7       0.068200
     38 H221       -44.6070   -26.6680     1.8280 h1         1 RI7       0.068200
     39 H231       -42.5060   -27.6040     0.4730 h1         1 RI7       0.058700
     40 H232       -44.1150   -27.6700    -0.2810 h1         1 RI7       0.058700
     41 H171       -47.4120   -31.5550     6.7390 hn         1 RI7       0.369000
     42 C03        -45.6350   -32.4700     1.0350 c          1 RI7       0.585100
@<TRIPOS>BOND
     1     1    14 ar  
     2     1    19 1   
     3     1    20 ar  
     4     2     3 ar  
     5     2     7 ar  
     6     2    25 1   
     7     3     4 ar  
     8     3    26 1   
     9     4     5 ar  
    10     4    17 1   
    11     5     6 ar  
    12     5    27 1   
    13     6     7 ar  
    14     6    19 1   
    15     7    14 1   
    16     8    20 ar  
    17     8    21 ar  
    18     8    28 1   
    19     9    22 1   
    20     9    29 1   
    21     9    30 1   
    22     9    31 1   
    23    10    11 1   
    24    10    32 1   
    25    10    33 1   
    26    10    42 1   
    27    11    12 1   
    28    11    23 1   
    29    11    34 1   
    30    12    18 1   
    31    12    35 1   
    32    12    36 1   
    33    13    14 ar  
    34    13    18 1   
    35    13    21 ar  
    36    15    16 1   
    37    15    18 1   
    38    15    37 1   
    39    15    38 1   
    40    16    23 1   
    41    16    39 1   
    42    16    40 1   
    43    19    41 1   
    44    22    42 1   
    45    24    42 2   
@<TRIPOS>SUBSTRUCTURE
     1 RI7         1 TEMP              0 ****  ****    0 ROOT
