@<TRIPOS>MOLECULE
RI8
   43    45     1     0     0
SMALL
abcg2


@<TRIPOS>ATOM
      1 C1          -4.0750    -1.8580     2.2870 ca         1 RI8       0.175900
      2 N2          -5.2810    -2.0620     1.7630 nb         1 RI8      -0.276000
      3 C3          -5.5410    -1.5550     0.5600 ca         1 RI8       0.438900
      4 C4          -4.5210    -0.8320    -0.0940 ca         1 RI8      -0.369000
      5 C5          -3.2930    -0.6930     0.5470 ca         1 RI8       0.200800
      6 N6          -3.0590    -1.2090     1.7640 nb         1 RI8      -0.167000
      7 S7          -4.5520    -0.0480    -1.6300 ss         1 RI8       0.124400
      8 C8          -2.9370     0.4800    -1.4180 cc         1 RI8      -0.122400
      9 C9          -2.3760     0.0830    -0.2440 cd         1 RI8      -0.266000
     10 N10         -6.7520    -1.7390     0.0310 nv         1 RI8      -1.076900
     11 C11         -0.9740     0.3620     0.1380 c          1 RI8       0.646300
     12 O12         -0.2870    -0.4340     0.7430 o          1 RI8      -0.536100
     13 N13         -0.5130     1.5790    -0.2650 ns         1 RI8      -0.162000
     14 C14          0.8090     1.9700    -0.0340 ca         1 RI8      -0.116000
     15 C15          1.8730     1.2880    -0.6040 ca         1 RI8       0.172000
     16 C16          3.1960     1.6360    -0.3670 ca         1 RI8       0.189000
     17 C17          3.4540     2.7300     0.4500 ca         1 RI8      -0.026000
     18 C18          2.4180     3.4420     1.0320 ca         1 RI8      -0.150000
     19 C19          1.1190     3.0450     0.7900 ca         1 RI8       0.187000
     20 N20          4.2540     0.9110    -0.9550 nu         1 RI8      -0.877100
     21 F21          1.6120     0.2620    -1.4110 f          1 RI8      -0.163000
     22 F22          0.1080     3.7100     1.3510 f          1 RI8      -0.164000
     23 S23          5.0410    -0.2440    -0.0440 s6         1 RI8       1.175100
     24 O24          6.1140    -0.7420    -0.8890 o          1 RI8      -0.524500
     25 O25          5.3540     0.3720     1.2340 o          1 RI8      -0.524500
     26 C26          3.8680    -1.5660     0.2360 c3         1 RI8      -0.336400
     27 C27          4.4840    -2.6880     1.0630 c3         1 RI8      -0.043400
     28 C28          3.4830    -3.8190     1.2600 c3         1 RI8      -0.085100
     29 H1          -3.9180    -2.2870     3.2710 h5         1 RI8       0.052100
     30 H8          -2.4680     1.0500    -2.2070 h4         1 RI8       0.224000
     31 HN10        -7.4210    -2.3150     0.5150 hn         1 RI8       0.503000
     32 HN1A        -6.9830    -1.4510    -0.9030 hn         1 RI8       0.503000
     33 HN13        -1.1690     2.2750    -0.5900 hn         1 RI8       0.169000
     34 H17          4.4770     3.0300     0.6230 ha         1 RI8       0.151000
     35 H18          2.6170     4.2930     1.6680 ha         1 RI8       0.147000
     36 HN20         4.1230     0.6240    -1.9200 hn         1 RI8       0.498000
     37 H26          3.0020    -1.1340     0.7430 h1         1 RI8       0.101700
     38 H26A         3.5550    -1.9200    -0.7480 h1         1 RI8       0.101700
     39 H27          5.3760    -3.0670     0.5610 hc         1 RI8       0.054700
     40 H27A         4.7990    -2.3010     2.0330 hc         1 RI8       0.054700
     41 H28          2.5960    -3.4750     1.7940 hc         1 RI8       0.038367
     42 H28A         3.1590    -4.2320     0.3040 hc         1 RI8       0.038367
     43 H28B         3.9270    -4.6270     1.8400 hc         1 RI8       0.038367
@<TRIPOS>BOND
     1     1     2 ar  
     2     1     6 ar  
     3     1    29 1   
     4     2     3 ar  
     5     3     4 ar  
     6     3    10 1   
     7     4     5 ar  
     8     4     7 1   
     9     5     6 ar  
    10     5     9 1   
    11     7     8 1   
    12     8     9 2   
    13     8    30 1   
    14     9    11 1   
    15    10    31 1   
    16    10    32 1   
    17    11    12 2   
    18    11    13 1   
    19    13    14 1   
    20    13    33 1   
    21    14    15 ar  
    22    14    19 ar  
    23    15    16 ar  
    24    15    21 1   
    25    16    17 ar  
    26    16    20 1   
    27    17    18 ar  
    28    17    34 1   
    29    18    19 ar  
    30    18    35 1   
    31    19    22 1   
    32    20    23 1   
    33    20    36 1   
    34    23    24 2   
    35    23    25 2   
    36    23    26 1   
    37    26    27 1   
    38    26    37 1   
    39    26    38 1   
    40    27    28 1   
    41    27    39 1   
    42    27    40 1   
    43    28    41 1   
    44    28    42 1   
    45    28    43 1   
@<TRIPOS>SUBSTRUCTURE
     1 RI8         1 TEMP              0 ****  ****    0 ROOT
