@<TRIPOS>MOLECULE
RI8
   43    45     1     0     0
SMALL
No Charge or Current Charge


@<TRIPOS>ATOM
      1 C1          -5.2460    -2.7160     0.1520 ca         1 RI8       0.175900
      2 N2          -6.5080    -2.2630    -0.0490 nb         1 RI8      -0.276000
      3 C3          -6.6390    -0.9420    -0.2380 ca         1 RI8       0.438900
      4 C4          -5.5330    -0.0940    -0.2280 ca         1 RI8      -0.369000
      5 C5          -4.2920    -0.6510    -0.0150 ca         1 RI8       0.200800
      6 N6          -4.1160    -1.9720     0.1800 nb         1 RI8      -0.167000
      7 S7          -5.5090     1.6730    -0.4560 ss         1 RI8       0.124400
      8 C8          -3.7350     1.6460    -0.2570 cc         1 RI8      -0.122400
      9 C9          -3.2500     0.3580    -0.0310 cd         1 RI8      -0.266000
     10 N10         -7.8960    -0.4870    -0.4430 nv         1 RI8      -1.076900
     11 C11         -1.8000     0.0480     0.1700 c          1 RI8       0.646300
     12 O12         -1.3640    -1.0790     0.3730 o          1 RI8      -0.536100
     13 N13         -0.9830     1.1700     0.1370 ns         1 RI8      -0.162000
     14 C14          0.4360     1.2890     0.2050 ca         1 RI8      -0.116000
     15 C15          1.3090     0.4350    -0.5130 ca         1 RI8       0.172000
     16 C16          2.7180     0.5780    -0.4220 ca         1 RI8       0.189000
     17 C17          3.2410     1.6110     0.3870 ca         1 RI8      -0.026000
     18 C18          2.3800     2.4790     1.0810 ca         1 RI8      -0.150000
     19 C19          0.9910     2.3210     0.9840 ca         1 RI8       0.187000
     20 N20          3.5530    -0.2910    -1.1520 nu         1 RI8      -0.877100
     21 F21          0.8000    -0.5100    -1.3420 f          1 RI8      -0.163000
     22 F22          0.1830     3.1680     1.6610 f          1 RI8      -0.164000
     23 S23          5.1080    -0.7900    -0.8400 s6         1 RI8       1.175100
     24 O24          5.3370    -1.8960    -1.7700 o          1 RI8      -0.524500
     25 O25          5.9480     0.4080    -0.8870 o          1 RI8      -0.524500
     26 C26          5.0570    -1.4340     0.8380 c3         1 RI8      -0.336400
     27 C27          6.4190    -1.9860     1.3220 c3         1 RI8      -0.043400
     28 C28          6.3520    -2.5300     2.7610 c3         1 RI8      -0.085100
     29 H1          -5.1290    -3.7870     0.3070 h5         1 RI8       0.052100
     30 H8          -3.2090     2.5930    -0.3270 h4         1 RI8       0.224000
     31 HN10        -8.6170    -1.1690    -0.6650 hn         1 RI8       0.503000
     32 HN1A        -8.0150     0.4420    -0.8320 hn         1 RI8       0.503000
     33 HN13        -1.4740     2.0500     0.0590 hn         1 RI8       0.169000
     34 H17          4.3110     1.7660     0.4710 ha         1 RI8       0.151000
     35 H18          2.7900     3.2780     1.6930 ha         1 RI8       0.147000
     36 HN20         3.1160    -1.0580    -1.6490 hn         1 RI8       0.498000
     37 H26          4.7260    -0.6090     1.4760 h1         1 RI8       0.101700
     38 H26A         4.2970    -2.2230     0.8390 h1         1 RI8       0.101700
     39 H27          6.7540    -2.7900     0.6530 hc         1 RI8       0.054700
     40 H27A         7.1780    -1.1940     1.2770 hc         1 RI8       0.054700
     41 H28          6.0540    -1.7400     3.4610 hc         1 RI8       0.038367
     42 H28A         5.6260    -3.3480     2.8320 hc         1 RI8       0.038367
     43 H28B         7.3320    -2.9120     3.0720 hc         1 RI8       0.038367
@<TRIPOS>BOND
     1     1     2 ar  
     2     1     6 ar  
     3     1    29 1   
     4     2     3 ar  
     5     3     4 ar  
     6     3    10 1   
     7     4     5 ar  
     8     4     7 1   
     9     5     6 ar  
    10     5     9 1   
    11     7     8 1   
    12     8     9 2   
    13     8    30 1   
    14     9    11 1   
    15    10    31 1   
    16    10    32 1   
    17    11    12 2   
    18    11    13 1   
    19    13    14 1   
    20    13    33 1   
    21    14    15 ar  
    22    14    19 ar  
    23    15    16 ar  
    24    15    21 1   
    25    16    17 ar  
    26    16    20 1   
    27    17    18 ar  
    28    17    34 1   
    29    18    19 ar  
    30    18    35 1   
    31    19    22 1   
    32    20    23 1   
    33    20    36 1   
    34    23    24 2   
    35    23    25 2   
    36    23    26 1   
    37    26    27 1   
    38    26    37 1   
    39    26    38 1   
    40    27    28 1   
    41    27    39 1   
    42    27    40 1   
    43    28    41 1   
    44    28    42 1   
    45    28    43 1   
@<TRIPOS>SUBSTRUCTURE
     1 RI8         1 TEMP              0 ****  ****    0 ROOT
