@<TRIPOS>MOLECULE
RI9
   49    50     1     0     0
SMALL
No Charge or Current Charge


@<TRIPOS>ATOM
      1 O1          -0.8860     1.2280    -0.3760 o          1 RI9      -0.548100
      2 C2          -1.3020     0.1100    -0.0970 c          1 RI9       0.674100
      3 N3          -2.6320    -0.2050     0.1010 ns         1 RI9      -0.332900
      4 C4          -3.7950     0.5930     0.0690 ca         1 RI9       0.295900
      5 N5          -3.6500     1.9150    -0.1410 nb         1 RI9      -0.228000
      6 C6          -4.7840     2.6460    -0.1560 ca         1 RI9       0.189900
      7 N7          -6.0390     2.1830     0.0170 nb         1 RI9      -0.276000
      8 C8          -6.1620     0.8640     0.2230 ca         1 RI9       0.405900
      9 C9          -5.0540     0.0130     0.2630 ca         1 RI9      -0.366000
     10 N10         -7.4510     0.4070     0.4090 nu         1 RI9      -0.922100
     11 N11         -0.4880    -1.0040     0.0250 ns         1 RI9      -0.181000
     12 C12          0.9320    -1.1290    -0.0250 ca         1 RI9      -0.107000
     13 C13          1.8020    -0.2160     0.6200 ca         1 RI9       0.175000
     14 C14          3.2110    -0.3670     0.5490 ca         1 RI9       0.187000
     15 C15          3.7370    -1.4660    -0.1650 ca         1 RI9      -0.024000
     16 C16          2.8790    -2.3900    -0.7860 ca         1 RI9      -0.150000
     17 C17          1.4900    -2.2240    -0.7100 ca         1 RI9       0.186000
     18 F18          0.6850    -3.1260    -1.3160 f          1 RI9      -0.166000
     19 F19          1.2900     0.7980     1.3620 f          1 RI9      -0.160000
     20 N20          4.0440     0.5620     1.2050 nu         1 RI9      -0.873100
     21 S21          5.6040     1.0270     0.8640 s6         1 RI9       1.171100
     22 C22          5.5700     1.5230    -0.8630 c3         1 RI9      -0.334400
     23 O23          5.8300     2.2080     1.6970 o          1 RI9      -0.524500
     24 O24          6.4380    -0.1660     1.0230 o          1 RI9      -0.524500
     25 C25          6.9390     2.0250    -1.3820 c3         1 RI9      -0.043400
     26 C26          6.8860     2.4420    -2.8630 c3         1 RI9      -0.085100
     27 C27         -7.9220    -0.9920     0.3420 c3         1 RI9       0.228800
     28 C28         -9.4490    -1.0960     0.6220 c3         1 RI9       0.146600
     29 O29        -10.2030    -0.1870    -0.2080 oh         1 RI9      -0.663000
     30 HN3         -2.8120    -1.1780     0.3090 hn         1 RI9       0.150000
     31 H6          -4.6750     3.7160    -0.3250 h5         1 RI9       0.050100
     32 H9          -5.1560    -1.0520     0.4380 ha         1 RI9       0.123000
     33 HN10        -8.1770     1.1120     0.2660 hn         1 RI9       0.517000
     34 HN11        -0.9820    -1.8750     0.1700 hn         1 RI9       0.163000
     35 H15          4.8080    -1.6280    -0.2310 ha         1 RI9       0.153000
     36 H16          3.2910    -3.2390    -1.3250 ha         1 RI9       0.148000
     37 HN20         3.6060     1.3690     1.6340 hn         1 RI9       0.498000
     38 H22          5.2410     0.6460    -1.4300 h1         1 RI9       0.102700
     39 H22A         4.8140     2.3110    -0.9390 h1         1 RI9       0.102700
     40 H25          7.2710     2.8820    -0.7820 hc         1 RI9       0.054200
     41 H25A         7.6930     1.2370    -1.2610 hc         1 RI9       0.054200
     42 H26          7.8700     2.7920    -3.1970 hc         1 RI9       0.039033
     43 H26A         6.5900     1.5950    -3.4940 hc         1 RI9       0.039033
     44 H26B         6.1640     3.2540    -3.0110 hc         1 RI9       0.039033
     45 H27         -7.7130    -1.4090    -0.6520 h1         1 RI9       0.049200
     46 H27A        -7.3890    -1.6070     1.0800 h1         1 RI9       0.049200
     47 H28         -9.7700    -2.1320     0.4470 h1         1 RI9       0.033200
     48 H28A        -9.6280    -0.8710     1.6820 h1         1 RI9       0.033200
     49 HO29       -11.1530    -0.3220     0.0070 ho         1 RI9       0.452000
@<TRIPOS>BOND
     1     1     2 2   
     2     2     3 1   
     3     2    11 1   
     4     3     4 1   
     5     3    30 1   
     6     4     5 ar  
     7     4     9 ar  
     8     5     6 ar  
     9     6     7 ar  
    10     6    31 1   
    11     7     8 ar  
    12     8     9 ar  
    13     8    10 1   
    14     9    32 1   
    15    10    27 1   
    16    10    33 1   
    17    11    12 1   
    18    11    34 1   
    19    12    13 ar  
    20    12    17 ar  
    21    13    14 ar  
    22    13    19 1   
    23    14    15 ar  
    24    14    20 1   
    25    15    16 ar  
    26    15    35 1   
    27    16    17 ar  
    28    16    36 1   
    29    17    18 1   
    30    20    21 1   
    31    20    37 1   
    32    21    22 1   
    33    21    23 2   
    34    21    24 2   
    35    22    25 1   
    36    22    38 1   
    37    22    39 1   
    38    25    26 1   
    39    25    40 1   
    40    25    41 1   
    41    26    42 1   
    42    26    43 1   
    43    26    44 1   
    44    27    28 1   
    45    27    45 1   
    46    27    46 1   
    47    28    29 1   
    48    28    47 1   
    49    28    48 1   
    50    29    49 1   
@<TRIPOS>SUBSTRUCTURE
     1 RI9         1 TEMP              0 ****  ****    0 ROOT
