@<TRIPOS>MOLECULE
RI9
   49    50     1     0     0
SMALL
abcg2


@<TRIPOS>ATOM
      1 O1           0.1370     0.0580    -0.8630 o          1 RI9      -0.548100
      2 C2          -0.5340    -0.7850    -0.3140 c          1 RI9       0.674100
      3 N3          -1.8960    -0.7300    -0.1210 ns         1 RI9      -0.332900
      4 C4          -2.7890     0.2430    -0.5220 ca         1 RI9       0.295900
      5 N5          -2.3650     1.2760    -1.2460 nb         1 RI9      -0.228000
      6 C6          -3.3010     2.1500    -1.5830 ca         1 RI9       0.189900
      7 N7          -4.5820     2.1270    -1.2900 nb         1 RI9      -0.276000
      8 C8          -5.0100     1.0840    -0.5540 ca         1 RI9       0.405900
      9 C9          -4.1180     0.0870    -0.1470 ca         1 RI9      -0.366000
     10 N10         -6.3130     1.0740    -0.2350 nu         1 RI9      -0.922100
     11 N11          0.0110    -1.9310     0.2140 ns         1 RI9      -0.181000
     12 C12          1.3850    -2.1560     0.1200 ca         1 RI9      -0.107000
     13 C13          2.2940    -1.3120     0.7410 ca         1 RI9       0.175000
     14 C14          3.6680    -1.4700     0.6190 ca         1 RI9       0.187000
     15 C15          4.1440    -2.5510    -0.1120 ca         1 RI9      -0.024000
     16 C16          3.2690    -3.4320    -0.7250 ca         1 RI9      -0.150000
     17 C17          1.9120    -3.2120    -0.6120 ca         1 RI9       0.186000
     18 F18          1.0560    -4.0380    -1.2170 f          1 RI9      -0.166000
     19 F19          1.8280    -0.3040     1.4770 f          1 RI9      -0.160000
     20 N20          4.5590    -0.5560     1.2250 nu         1 RI9      -0.873100
     21 S21          5.2010     0.6640     0.2830 s6         1 RI9       1.171100
     22 C22          3.8340     1.7120    -0.2050 c3         1 RI9      -0.334400
     23 O23          6.0790     1.4180     1.1620 o          1 RI9      -0.524500
     24 O24          5.7450     0.0320    -0.9070 o          1 RI9      -0.524500
     25 C25          4.3030     2.8740    -1.0710 c3         1 RI9      -0.043400
     26 C26          3.1210     3.7460    -1.4750 c3         1 RI9      -0.085100
     27 C27         -6.9830    -0.0160     0.4330 c3         1 RI9       0.228800
     28 C28         -8.3690     0.3990     0.8720 c3         1 RI9       0.146600
     29 O29         -9.1210     0.7480    -0.2690 oh         1 RI9      -0.663000
     30 HN3         -2.3110    -1.4840     0.4060 hn         1 RI9       0.150000
     31 H6          -2.9650     2.9930    -2.1800 h5         1 RI9       0.050100
     32 H9          -4.4350    -0.7710     0.4300 ha         1 RI9       0.123000
     33 HN10        -6.8860     1.7610    -0.7020 hn         1 RI9       0.517000
     34 HN11        -0.5770    -2.6920     0.5180 hn         1 RI9       0.163000
     35 H15          5.2100    -2.7050    -0.1950 ha         1 RI9       0.153000
     36 H16          3.6390    -4.2750    -1.2930 ha         1 RI9       0.148000
     37 HN20         4.3080    -0.2350     2.1540 hn         1 RI9       0.498000
     38 H22          3.1190     1.0860    -0.7430 h1         1 RI9       0.102700
     39 H22A         3.3660     2.0630     0.7160 h1         1 RI9       0.102700
     40 H25          5.0310     3.4730    -0.5210 hc         1 RI9       0.054200
     41 H25A         4.8030     2.4940    -1.9620 hc         1 RI9       0.054200
     42 H26          3.4550     4.5800    -2.0930 hc         1 RI9       0.039033
     43 H26A         2.3880     3.1780    -2.0490 hc         1 RI9       0.039033
     44 H26B         2.6150     4.1590    -0.6020 hc         1 RI9       0.039033
     45 H27         -7.0390    -0.9040    -0.2090 h1         1 RI9       0.049200
     46 H27A        -6.4270    -0.3030     1.3280 h1         1 RI9       0.049200
     47 H28         -8.8180    -0.4400     1.4170 h1         1 RI9       0.033200
     48 H28A        -8.2870     1.2370     1.5740 h1         1 RI9       0.033200
     49 HO29        -9.9380     1.1620     0.0210 ho         1 RI9       0.452000
@<TRIPOS>BOND
     1     1     2 2   
     2     2     3 1   
     3     2    11 1   
     4     3     4 1   
     5     3    30 1   
     6     4     5 ar  
     7     4     9 ar  
     8     5     6 ar  
     9     6     7 ar  
    10     6    31 1   
    11     7     8 ar  
    12     8     9 ar  
    13     8    10 1   
    14     9    32 1   
    15    10    27 1   
    16    10    33 1   
    17    11    12 1   
    18    11    34 1   
    19    12    13 ar  
    20    12    17 ar  
    21    13    14 ar  
    22    13    19 1   
    23    14    15 ar  
    24    14    20 1   
    25    15    16 ar  
    26    15    35 1   
    27    16    17 ar  
    28    16    36 1   
    29    17    18 1   
    30    20    21 1   
    31    20    37 1   
    32    21    22 1   
    33    21    23 2   
    34    21    24 2   
    35    22    25 1   
    36    22    38 1   
    37    22    39 1   
    38    25    26 1   
    39    25    40 1   
    40    25    41 1   
    41    26    42 1   
    42    26    43 1   
    43    26    44 1   
    44    27    28 1   
    45    27    45 1   
    46    27    46 1   
    47    28    29 1   
    48    28    47 1   
    49    28    48 1   
    50    29    49 1   
@<TRIPOS>SUBSTRUCTURE
     1 RI9         1 TEMP              0 ****  ****    0 ROOT
