@<TRIPOS>MOLECULE
RIB
   20    20     1     0     0
SMALL
No Charge or Current Charge


@<TRIPOS>ATOM
      1 O5         -22.7470    15.0060    44.2350 oh         1 RIB      -0.698000
      2 C5         -21.6290    14.5710    45.0300 c3         1 RIB       0.157600
      3 C4         -20.5310    13.9000    44.1520 c5         1 RIB       0.156300
      4 O4         -19.8650    14.9240    43.3450 os         1 RIB      -0.452000
      5 C3         -19.3980    13.2080    44.9970 c5         1 RIB       0.142300
      6 O3         -18.8570    12.0410    44.3440 oh         1 RIB      -0.718000
      7 C2         -18.3520    14.3650    45.0440 c5         1 RIB       0.059300
      8 O2         -17.0460    13.9220    45.4780 oh         1 RIB      -0.711000
      9 C1         -18.4480    14.8560    43.5540 c5         1 RIB       0.356300
     10 O1         -17.9190    13.9060    42.6430 oh         1 RIB      -0.715000
     11 HO5        -23.3710    15.4690    44.8440 ho         1 RIB       0.503000
     12 H51        -21.1890    15.4190    45.5720 h1         1 RIB       0.019700
     13 H52        -21.9700    13.8420    45.7780 h1         1 RIB       0.019700
     14 H4         -21.0150    13.1700    43.4890 h1         1 RIB       0.094700
     15 H3         -19.7540    12.9490    46.0050 h1         1 RIB       0.059700
     16 HO3        -18.1410    11.7120    44.9430 ho         1 RIB       0.527000
     17 H2         -18.7070    15.1630    45.7120 h1         1 RIB       0.051700
     18 HO2        -16.4220    14.6810    45.3800 ho         1 RIB       0.524000
     19 H1         -17.9840    15.8430    43.4090 h2         1 RIB       0.099700
     20 HO1        -18.2060    13.0530    43.0650 ho         1 RIB       0.525000
@<TRIPOS>BOND
     1     1     2 1   
     2     1    11 1   
     3     2     3 1   
     4     2    12 1   
     5     2    13 1   
     6     3     4 1   
     7     3     5 1   
     8     3    14 1   
     9     4     9 1   
    10     5     6 1   
    11     5     7 1   
    12     5    15 1   
    13     6    16 1   
    14     7     8 1   
    15     7     9 1   
    16     7    17 1   
    17     8    18 1   
    18     9    10 1   
    19     9    19 1   
    20    10    20 1   
@<TRIPOS>SUBSTRUCTURE
     1 RIB         1 TEMP              0 ****  ****    0 ROOT
