@<TRIPOS>MOLECULE
RIB
   20    20     1     0     0
SMALL
bcc


@<TRIPOS>ATOM
      1 O5         -22.5700    15.0840    44.1850 oh         1 RIB      -0.575800
      2 C5         -21.6040    14.5380    45.0490 c3         1 RIB       0.134400
      3 C4         -20.5430    13.8480    44.2150 c5         1 RIB       0.133100
      4 O4         -19.9110    14.7870    43.3430 os         1 RIB      -0.405600
      5 C3         -19.4360    13.2470    45.0760 c5         1 RIB       0.119100
      6 O3         -18.9820    12.0600    44.4620 oh         1 RIB      -0.595800
      7 C2         -18.3790    14.3490    45.0200 c5         1 RIB       0.036100
      8 O2         -17.1250    13.8480    45.3720 oh         1 RIB      -0.588800
      9 C1         -18.5250    14.8430    43.5710 c5         1 RIB       0.309900
     10 O1         -17.7910    14.1110    42.6490 oh         1 RIB      -0.592800
     11 HO5        -23.2130    15.5610    44.7170 ho         1 RIB       0.404000
     12 H51        -21.1360    15.3060    45.6810 h1         1 RIB       0.019700
     13 H52        -22.0390    13.7900    45.7260 h1         1 RIB       0.019700
     14 H4         -21.0230    13.0650    43.6160 h1         1 RIB       0.094700
     15 H3         -19.7740    13.0530    46.1010 h1         1 RIB       0.059700
     16 HO3        -18.2190    11.7370    44.9540 ho         1 RIB       0.428000
     17 H2         -18.6960    15.1640    45.6860 h1         1 RIB       0.051700
     18 HO2        -16.4750    14.5550    45.3150 ho         1 RIB       0.425000
     19 H1         -18.2110    15.8830    43.4450 h2         1 RIB       0.099700
     20 HO1        -17.9000    13.1700    42.8350 ho         1 RIB       0.426000
@<TRIPOS>BOND
     1     1     2 1   
     2     1    11 1   
     3     2     3 1   
     4     2    12 1   
     5     2    13 1   
     6     3     4 1   
     7     3     5 1   
     8     3    14 1   
     9     4     9 1   
    10     5     6 1   
    11     5     7 1   
    12     5    15 1   
    13     6    16 1   
    14     7     8 1   
    15     7     9 1   
    16     7    17 1   
    17     8    18 1   
    18     9    10 1   
    19     9    19 1   
    20    10    20 1   
@<TRIPOS>SUBSTRUCTURE
     1 RIB         1 TEMP              0 ****  ****    0 ROOT
