@<TRIPOS>MOLECULE
RIE
   73    75     1     0     0
SMALL
No Charge or Current Charge


@<TRIPOS>ATOM
      1 N3          -0.3380     1.2910    -0.0830 na         1 RIE       0.223000
      2 C4           0.1950     0.1510     0.4810 cc         1 RIE      -0.115300
      3 C5          -0.8340    -0.7570     0.3670 cd         1 RIE      -0.160300
      4 C6          -0.7450    -2.1920     0.8780 c3         1 RIE       0.022600
      5 C7           1.5810     0.0260     1.0760 c3         1 RIE      -0.015100
      6 C8           2.5790    -0.6590     0.1130 c3         1 RIE      -0.113400
      7 C10          5.0160    -1.2920    -0.4050 c3         1 RIE      -0.148400
      8 C13         -1.7960    -2.5330     1.9610 c3         1 RIE      -0.087100
      9 C15          0.8390     4.7580     0.5360 ca         1 RIE      -0.145500
     10 C17         -7.2920    -0.1110     0.3820 ca         1 RIE      -0.098000
     11 C20         -8.1220    -0.6640     1.3730 ca         1 RIE      -0.115500
     12 C21          1.3030     2.6430    -1.2600 ca         1 RIE      -0.070000
     13 C24          2.0140     3.8490    -1.3940 ca         1 RIE      -0.145500
     14 C26         -6.6720    -2.3460    -0.3440 ca         1 RIE      -0.098000
     15 O2          -3.5080    -1.8600    -0.6950 o          1 RIE      -0.601100
     16 N2          -4.3860     0.2260    -1.0260 n          1 RIE      -0.398800
     17 C1          -5.6440    -0.3660    -1.5780 c3         1 RIE       0.152000
     18 C16         -6.4270     0.5650    -2.5390 c3         1 RIE      -0.100100
     19 C32         -6.5570    -0.9470    -0.4880 ca         1 RIE      -0.097300
     20 C23         -7.5020    -2.8980     0.6470 ca         1 RIE      -0.115500
     21 C29         -8.2270    -2.0580     1.5060 ca         1 RIE      -0.109000
     22 C14         -4.4180     1.6580    -0.6230 c3         1 RIE       0.093300
     23 C2          -1.9450    -0.0630    -0.2660 cd         1 RIE       0.208500
     24 C12         -0.6340    -3.2460    -0.2470 c3         1 RIE      -0.087100
     25 C27          0.3580     2.4900    -0.2250 ca         1 RIE      -0.009200
     26 C18          0.1260     3.5520     0.6720 ca         1 RIE      -0.070000
     27 C30          1.7800     4.9010    -0.4950 ca         1 RIE       0.183000
     28 F1           2.4640     6.0590    -0.6240 f          1 RIE      -0.173000
     29 N4          -1.6100     1.1980    -0.5450 nc         1 RIE      -0.499800
     30 C9           4.0330    -0.7050     0.6390 c3         1 RIE       0.168300
     31 O4           4.0770    -1.5070     1.8260 oh         1 RIE      -0.655000
     32 C11          6.5140    -1.1660    -0.0250 c3         1 RIE       0.187300
     33 O3           6.7220    -1.8720     1.1950 oh         1 RIE      -0.641000
     34 C35          7.4520    -1.7220    -1.1200 c3         1 RIE      -0.232400
     35 C36          8.8990    -1.2940    -0.8430 c          1 RIE       0.728000
     36 O6           9.2500    -0.1890    -1.2300 o          1 RIE      -0.737000
     37 O7           9.6410    -2.0690    -0.2570 o          1 RIE      -0.737000
     38 H6           0.2070    -2.2850     1.4110 hc         1 RIE       0.046700
     39 H7           1.9680     1.0180     1.3410 hc         1 RIE       0.063200
     40 H7A          1.5310    -0.5280     2.0200 hc         1 RIE       0.063200
     41 H8           2.2340    -1.6760    -0.1090 hc         1 RIE       0.047200
     42 H8A          2.5690    -0.1140    -0.8380 hc         1 RIE       0.047200
     43 H10          4.7690    -2.3450    -0.5920 hc         1 RIE       0.038200
     44 H10A         4.8620    -0.7660    -1.3560 hc         1 RIE       0.038200
     45 H13         -2.8120    -2.5800     1.5630 hc         1 RIE       0.035533
     46 H13A        -1.5720    -3.5050     2.4160 hc         1 RIE       0.035533
     47 H13B        -1.7780    -1.7790     2.7570 hc         1 RIE       0.035533
     48 H15          0.6630     5.5780     1.2270 ha         1 RIE       0.138500
     49 H21          1.4810     1.8280    -1.9600 ha         1 RIE       0.134000
     50 H24          2.7440     3.9690    -2.1900 ha         1 RIE       0.138500
     51 H26         -6.1140    -3.0100    -1.0000 ha         1 RIE       0.119500
     52 H1          -5.3350    -1.2060    -2.2150 h1         1 RIE       0.090700
     53 H16         -5.7620     0.9570    -3.3170 hc         1 RIE       0.042367
     54 H16A        -7.2280     0.0030    -3.0330 hc         1 RIE       0.042367
     55 H16B        -6.8910     1.4120    -2.0220 hc         1 RIE       0.042367
     56 H23         -7.5810    -3.9780     0.7490 ha         1 RIE       0.110500
     57 H29         -8.8690    -2.4850     2.2730 ha         1 RIE       0.109000
     58 H14         -3.8990     2.2680    -1.3730 h1         1 RIE       0.041700
     59 H14A        -5.4440     2.0250    -0.5280 h1         1 RIE       0.041700
     60 H14B        -3.9420     1.7850     0.3570 h1         1 RIE       0.041700
     61 H12          0.1670    -2.9750    -0.9450 hc         1 RIE       0.035533
     62 H12A        -0.3930    -4.2290     0.1740 hc         1 RIE       0.035533
     63 H12B        -1.5590    -3.3500    -0.8200 hc         1 RIE       0.035533
     64 H18         -0.6020     3.4390     1.4720 ha         1 RIE       0.134000
     65 H9           4.3490     0.3250     0.8630 h1         1 RIE       0.082700
     66 HO4          3.3910    -2.2020     1.7250 ho         1 RIE       0.427000
     67 H11          6.7360    -0.0960     0.1120 h1         1 RIE       0.081700
     68 HO3          5.8440    -1.8320     1.6490 ho         1 RIE       0.419000
     69 H35          7.3490    -2.8150    -1.1180 hc         1 RIE       0.017200
     70 H35A         7.1090    -1.2550    -2.0510 hc         1 RIE       0.017200
     71 C3          -3.3100    -0.6510    -0.6550 c          1 RIE       0.547600
     72 H17         -7.2260     0.9700     0.2970 ha         1 RIE       0.119500
     73 H20         -8.6830    -0.0110     2.0370 ha         1 RIE       0.110500
@<TRIPOS>BOND
     1     1     2 1   
     2     1    25 1   
     3     1    29 1   
     4     2     3 2   
     5     2     5 1   
     6     3     4 1   
     7     3    23 1   
     8     4     8 1   
     9     4    24 1   
    10     4    38 1   
    11     5     6 1   
    12     5    39 1   
    13     5    40 1   
    14     6    30 1   
    15     6    41 1   
    16     6    42 1   
    17     7    30 1   
    18     7    32 1   
    19     7    43 1   
    20     7    44 1   
    21     8    45 1   
    22     8    46 1   
    23     8    47 1   
    24     9    26 ar  
    25     9    27 ar  
    26     9    48 1   
    27    10    11 ar  
    28    10    19 ar  
    29    10    72 1   
    30    11    21 ar  
    31    11    73 1   
    32    12    13 ar  
    33    12    25 ar  
    34    12    49 1   
    35    13    27 ar  
    36    13    50 1   
    37    14    19 ar  
    38    14    20 ar  
    39    14    51 1   
    40    15    71 2   
    41    16    17 1   
    42    16    22 1   
    43    16    71 1   
    44    17    18 1   
    45    17    19 1   
    46    17    52 1   
    47    18    53 1   
    48    18    54 1   
    49    18    55 1   
    50    20    21 ar  
    51    20    56 1   
    52    21    57 1   
    53    22    58 1   
    54    22    59 1   
    55    22    60 1   
    56    23    29 2   
    57    23    71 1   
    58    24    61 1   
    59    24    62 1   
    60    24    63 1   
    61    25    26 ar  
    62    26    64 1   
    63    27    28 1   
    64    30    31 1   
    65    30    65 1   
    66    31    66 1   
    67    32    33 1   
    68    32    34 1   
    69    32    67 1   
    70    33    68 1   
    71    34    35 1   
    72    34    69 1   
    73    34    70 1   
    74    35    36 1   
    75    35    37 1   
@<TRIPOS>SUBSTRUCTURE
     1 RIE         1 TEMP              0 ****  ****    0 ROOT
