@<TRIPOS>MOLECULE
RIE
   73    75     1     0     0
SMALL
abcg2


@<TRIPOS>ATOM
      1 N3          -0.2120     1.1870    -0.4530 na         1 RIE       0.223000
      2 C4           0.0760     0.1150     0.3300 cc         1 RIE      -0.115300
      3 C5          -0.9950    -0.7500     0.2150 cd         1 RIE      -0.160300
      4 C6          -1.1480    -2.0840     0.8850 c3         1 RIE       0.022600
      5 C7           1.3710    -0.0530     1.0450 c3         1 RIE      -0.015100
      6 C8           2.4900    -0.5130     0.1060 c3         1 RIE      -0.113400
      7 C10          4.9010    -1.1750    -0.1600 c3         1 RIE      -0.148400
      8 C13         -2.5100    -2.2470     1.5580 c3         1 RIE      -0.087100
      9 C15          1.6970     4.3000     0.1250 ca         1 RIE      -0.145500
     10 C17         -7.5590    -0.3040     0.1970 ca         1 RIE      -0.098000
     11 C20         -8.3250    -0.9990     1.1280 ca         1 RIE      -0.115500
     12 C21          1.0230     2.6050    -1.9790 ca         1 RIE      -0.070000
     13 C24          1.7940     3.7300    -2.2250 ca         1 RIE      -0.145500
     14 C26         -6.1660    -2.2300    -0.0900 ca         1 RIE      -0.098000
     15 O2          -3.1890    -1.4550    -2.0570 o          1 RIE      -0.601100
     16 N2          -4.2780     0.0960    -0.8060 n          1 RIE      -0.398800
     17 C1          -5.5810    -0.1880    -1.4170 c3         1 RIE       0.152000
     18 C16         -6.1850     1.0780    -2.0110 c3         1 RIE      -0.100100
     19 C32         -6.4690    -0.9080    -0.4190 ca         1 RIE      -0.097300
     20 C23         -6.9250    -2.9250     0.8370 ca         1 RIE      -0.115500
     21 C29         -8.0090    -2.3090     1.4530 ca         1 RIE      -0.109000
     22 C14         -4.2570     1.0960     0.2450 c3         1 RIE       0.093300
     23 C2          -1.8730    -0.0850    -0.6680 cd         1 RIE       0.208500
     24 C12         -0.8660    -3.2370    -0.0790 c3         1 RIE      -0.087100
     25 C27          0.5860     2.3310    -0.6890 ca         1 RIE      -0.009200
     26 C18          0.9140     3.1800     0.3590 ca         1 RIE      -0.070000
     27 C30          2.1200     4.5550    -1.1650 ca         1 RIE       0.183000
     28 F1           2.8690     5.6420    -1.3970 f          1 RIE      -0.173000
     29 N4          -1.3930     1.0770    -1.0610 nc         1 RIE      -0.499800
     30 C9           3.8380    -0.6560     0.8080 c3         1 RIE       0.168300
     31 O4           3.7340    -1.4630     1.9680 oh         1 RIE      -0.655000
     32 C11          6.3420    -0.8260     0.2060 c3         1 RIE       0.187300
     33 O3           6.6410    -1.0910     1.5650 oh         1 RIE      -0.641000
     34 C35          7.3270    -1.5330    -0.7150 c3         1 RIE      -0.232400
     35 C36          8.7920    -1.1360    -0.4720 c          1 RIE       0.728000
     36 O6           9.0230     0.0810    -0.3220 o          1 RIE      -0.737000
     37 O7           9.6390    -2.0530    -0.4750 o          1 RIE      -0.737000
     38 H6          -0.3960    -2.1330     1.6790 hc         1 RIE       0.046700
     39 H7           1.6660     0.8750     1.5400 hc         1 RIE       0.063200
     40 H7A          1.2310    -0.7870     1.8380 hc         1 RIE       0.063200
     41 H8           2.2060    -1.4650    -0.3580 hc         1 RIE       0.047200
     42 H8A          2.6020     0.2040    -0.7130 hc         1 RIE       0.047200
     43 H10          4.7880    -2.2630    -0.2570 hc         1 RIE       0.038200
     44 H10A         4.7100    -0.7730    -1.1590 hc         1 RIE       0.038200
     45 H13         -3.3270    -2.2820     0.8370 hc         1 RIE       0.035533
     46 H13A        -2.5430    -3.1810     2.1210 hc         1 RIE       0.035533
     47 H13B        -2.7100    -1.4330     2.2560 hc         1 RIE       0.035533
     48 H15          1.9580     4.9700     0.9330 ha         1 RIE       0.138500
     49 H21          0.7630     1.9400    -2.7920 ha         1 RIE       0.134000
     50 H24          2.1400     3.9550    -3.2250 ha         1 RIE       0.138500
     51 H26         -5.3290    -2.7210    -0.5730 ha         1 RIE       0.119500
     52 H1          -5.3900    -0.8790    -2.2360 h1         1 RIE       0.090700
     53 H16         -5.5130     1.4920    -2.7630 hc         1 RIE       0.042367
     54 H16A        -7.1320     0.8480    -2.4980 hc         1 RIE       0.042367
     55 H16B        -6.3720     1.8520    -1.2660 hc         1 RIE       0.042367
     56 H23         -6.6750    -3.9510     1.0780 ha         1 RIE       0.110500
     57 H29         -8.6040    -2.8510     2.1760 ha         1 RIE       0.109000
     58 H14         -4.1980     2.1100    -0.1520 h1         1 RIE       0.041700
     59 H14A        -5.1670     1.0110     0.8380 h1         1 RIE       0.041700
     60 H14B        -3.4190     0.9410     0.9170 h1         1 RIE       0.041700
     61 H12          0.1280    -3.1500    -0.5200 hc         1 RIE       0.035533
     62 H12A        -0.9140    -4.1950     0.4430 hc         1 RIE       0.035533
     63 H12B        -1.5930    -3.2550    -0.8910 hc         1 RIE       0.035533
     64 H18          0.5480     2.9820     1.3570 ha         1 RIE       0.134000
     65 H9           4.1360     0.3340     1.1720 h1         1 RIE       0.082700
     66 HO4          3.4520    -2.3420     1.6930 ho         1 RIE       0.427000
     67 H11          6.4730     0.2540     0.0870 h1         1 RIE       0.081700
     68 HO3          6.2980    -1.9620     1.7860 ho         1 RIE       0.419000
     69 H35          7.2000    -2.6170    -0.6230 hc         1 RIE       0.017200
     70 H35A         7.0760    -1.2850    -1.7540 hc         1 RIE       0.017200
     71 C3          -3.1760    -0.5480    -1.2330 c          1 RIE       0.547600
     72 H17         -7.8270     0.7170    -0.0440 ha         1 RIE       0.119500
     73 H20         -9.1690    -0.5100     1.5970 ha         1 RIE       0.110500
@<TRIPOS>BOND
     1     1     2 1   
     2     1    25 1   
     3     1    29 1   
     4     2     3 2   
     5     2     5 1   
     6     3     4 1   
     7     3    23 1   
     8     4     8 1   
     9     4    24 1   
    10     4    38 1   
    11     5     6 1   
    12     5    39 1   
    13     5    40 1   
    14     6    30 1   
    15     6    41 1   
    16     6    42 1   
    17     7    30 1   
    18     7    32 1   
    19     7    43 1   
    20     7    44 1   
    21     8    45 1   
    22     8    46 1   
    23     8    47 1   
    24     9    26 ar  
    25     9    27 ar  
    26     9    48 1   
    27    10    11 ar  
    28    10    19 ar  
    29    10    72 1   
    30    11    21 ar  
    31    11    73 1   
    32    12    13 ar  
    33    12    25 ar  
    34    12    49 1   
    35    13    27 ar  
    36    13    50 1   
    37    14    19 ar  
    38    14    20 ar  
    39    14    51 1   
    40    15    71 2   
    41    16    17 1   
    42    16    22 1   
    43    16    71 1   
    44    17    18 1   
    45    17    19 1   
    46    17    52 1   
    47    18    53 1   
    48    18    54 1   
    49    18    55 1   
    50    20    21 ar  
    51    20    56 1   
    52    21    57 1   
    53    22    58 1   
    54    22    59 1   
    55    22    60 1   
    56    23    29 2   
    57    23    71 1   
    58    24    61 1   
    59    24    62 1   
    60    24    63 1   
    61    25    26 ar  
    62    26    64 1   
    63    27    28 1   
    64    30    31 1   
    65    30    65 1   
    66    31    66 1   
    67    32    33 1   
    68    32    34 1   
    69    32    67 1   
    70    33    68 1   
    71    34    35 1   
    72    34    69 1   
    73    34    70 1   
    74    35    36 1   
    75    35    37 1   
@<TRIPOS>SUBSTRUCTURE
     1 RIE         1 TEMP              0 ****  ****    0 ROOT
