@<TRIPOS>MOLECULE
RIJ
   53    57     1     0     0
SMALL
No Charge or Current Charge


@<TRIPOS>ATOM
      1 N1         -21.6050     6.7250    30.5000 n3         1 RIJ      -0.736600
      2 N3         -16.5350     3.5830    26.1840 nb         1 RIJ      -0.655000
      3 C4         -22.5900     4.5460    31.2690 ca         1 RIJ      -0.055300
      4 C5         -23.0530     3.7580    32.3410 ca         1 RIJ      -0.099000
      5 C6         -23.0480     2.3580    32.2460 ca         1 RIJ      -0.087000
      6 C7         -22.5590     1.7440    31.0870 ca         1 RIJ       0.125000
      7 C8         -22.0980     2.5230    30.0140 ca         1 RIJ      -0.095000
      8 C10        -21.6160     4.8180    28.9060 c5         1 RIJ      -0.076700
      9 C13        -20.1000     4.6220    28.6790 c          1 RIJ       0.578000
     10 C15        -17.7800     3.5960    26.7110 ca         1 RIJ       0.351900
     11 C17        -16.8340     5.9160    25.5760 ca         1 RIJ      -0.097000
     12 C20        -18.3530     8.2800    25.5100 ca         1 RIJ      -0.084000
     13 C21        -18.8900     7.1190    26.0910 ca         1 RIJ      -0.102000
     14 C22        -18.1360     5.9260    26.1230 ca         1 RIJ       0.003000
     15 O2         -19.2000     4.4880    29.4990 o          1 RIJ      -0.477000
     16 N2         -19.9310     4.6410    27.2950 n          1 RIJ      -0.223000
     17 C14        -18.6230     4.7290    26.6990 ca         1 RIJ      -0.089000
     18 C19        -17.0600     8.2620    24.9620 ca         1 RIJ      -0.110000
     19 C18        -16.2990     7.0810    24.9950 ca         1 RIJ      -0.078000
     20 C16        -16.0790     4.7270    25.6260 ca         1 RIJ       0.372900
     21 C12        -21.1020     4.6150    26.5360 c          1 RIJ       0.569000
     22 O1         -21.1930     4.9080    25.3530 o          1 RIJ      -0.476000
     23 C11        -22.2180     4.3200    27.5410 c5         1 RIJ      -0.165400
     24 C9         -22.1400     3.9380    30.0690 ca         1 RIJ      -0.054300
     25 Cl         -22.5070    -0.0110    30.9800 cl         1 RIJ      -0.200000
     26 C3         -22.5490     6.0680    31.4370 c6         1 RIJ       0.220100
     27 C23        -21.9250     6.3270    29.1130 c6         1 RIJ       0.178800
     28 C2         -21.5190     8.2110    30.6930 c3         1 RIJ       0.084800
     29 C1         -20.3470     8.9290    29.9690 c          1 RIJ       0.584100
     30 O          -20.4150    10.0750    29.5420 o          1 RIJ      -0.625100
     31 N          -19.2170     8.1550    29.8280 ns         1 RIJ      -0.494900
     32 C          -17.9830     8.5750    29.1640 c3         1 RIJ       0.095300
     33 H2         -23.4060     4.2320    33.2540 ha         1 RIJ       0.122000
     34 H3         -23.4020     1.7520    33.0770 ha         1 RIJ       0.136000
     35 H4         -21.6930     2.0070    29.1490 ha         1 RIJ       0.130000
     36 H6         -18.9390     9.1970    25.4860 ha         1 RIJ       0.121000
     37 H7         -19.8890     7.1630    26.5140 ha         1 RIJ       0.117000
     38 H8         -16.6460     9.1630    24.5130 ha         1 RIJ       0.120000
     39 H9         -15.2960     7.0750    24.5720 ha         1 RIJ       0.120000
     40 H10        -15.0720     4.6910    25.2120 h4         1 RIJ       0.023100
     41 H11        -23.1610     4.7830    27.2310 hc         1 RIJ       0.094200
     42 H12        -22.3650     3.2370    27.5120 hc         1 RIJ       0.094200
     43 H13        -22.2640     6.2970    32.4740 h1         1 RIJ       0.051200
     44 H14        -23.5670     6.4600    31.2920 h1         1 RIJ       0.051200
     45 H15        -21.3500     6.9200    28.3870 h1         1 RIJ       0.049700
     46 H16        -22.9880     6.5200    28.9060 h1         1 RIJ       0.049700
     47 H17        -21.3830     8.4320    31.7600 h1         1 RIJ       0.066700
     48 H18        -22.4520     8.6950    30.3760 h1         1 RIJ       0.066700
     49 H19        -19.2920     7.2120    30.1980 hn         1 RIJ       0.352500
     50 H20        -17.3990     7.6880    28.8850 h1         1 RIJ       0.041700
     51 H21        -18.2200     9.1480    28.2590 h1         1 RIJ       0.041700
     52 H22        -17.3920     9.1990    29.8470 h1         1 RIJ       0.041700
     53 H5         -18.1210     2.6610    27.1560 h4         1 RIJ       0.028100
@<TRIPOS>BOND
     1     1    26 1   
     2     1    27 1   
     3     1    28 1   
     4     2    10 ar  
     5     2    20 ar  
     6     3     4 ar  
     7     3    24 ar  
     8     3    26 1   
     9     4     5 ar  
    10     4    33 1   
    11     5     6 ar  
    12     5    34 1   
    13     6     7 ar  
    14     6    25 1   
    15     7    24 ar  
    16     7    35 1   
    17     8     9 1   
    18     8    23 1   
    19     8    24 1   
    20     8    27 1   
    21     9    15 2   
    22     9    16 1   
    23    10    17 ar  
    24    10    53 1   
    25    11    14 ar  
    26    11    19 ar  
    27    11    20 ar  
    28    12    13 ar  
    29    12    18 ar  
    30    12    36 1   
    31    13    14 ar  
    32    13    37 1   
    33    14    17 ar  
    34    16    17 1   
    35    16    21 1   
    36    18    19 ar  
    37    18    38 1   
    38    19    39 1   
    39    20    40 1   
    40    21    22 2   
    41    21    23 1   
    42    23    41 1   
    43    23    42 1   
    44    26    43 1   
    45    26    44 1   
    46    27    45 1   
    47    27    46 1   
    48    28    29 1   
    49    28    47 1   
    50    28    48 1   
    51    29    30 2   
    52    29    31 1   
    53    31    32 1   
    54    31    49 1   
    55    32    50 1   
    56    32    51 1   
    57    32    52 1   
@<TRIPOS>SUBSTRUCTURE
     1 RIJ         1 TEMP              0 ****  ****    0 ROOT
