@<TRIPOS>MOLECULE
RIJ
   53    57     1     0     0
SMALL
abcg2


@<TRIPOS>ATOM
      1 N1         -21.7130     6.8000    30.4100 n3         1 RIJ      -0.736600
      2 N3         -16.7240     3.4050    26.0220 nb         1 RIJ      -0.655000
      3 C4         -22.4020     4.6070    31.2470 ca         1 RIJ      -0.055300
      4 C5         -22.6990     3.7750    32.3270 ca         1 RIJ      -0.099000
      5 C6         -22.6320     2.3950    32.2200 ca         1 RIJ      -0.087000
      6 C7         -22.2500     1.8440    31.0030 ca         1 RIJ       0.125000
      7 C8         -21.9570     2.6440    29.9130 ca         1 RIJ      -0.095000
      8 C10        -21.7080     4.9050    28.8280 c5         1 RIJ      -0.076700
      9 C13        -20.1960     4.8740    28.5690 c          1 RIJ       0.578000
     10 C15        -17.9710     3.4760    26.5490 ca         1 RIJ       0.351900
     11 C17        -16.8260     5.7790    25.6030 ca         1 RIJ      -0.097000
     12 C20        -18.1740     8.2200    25.6900 ca         1 RIJ      -0.084000
     13 C21        -18.8010     7.1020    26.1790 ca         1 RIJ      -0.102000
     14 C22        -18.1390     5.8550    26.1470 ca         1 RIJ       0.003000
     15 O2         -19.3060     5.0590    29.3670 o          1 RIJ      -0.477000
     16 N2         -19.9840     4.6280    27.2190 n          1 RIJ      -0.223000
     17 C14        -18.6870     4.6400    26.6280 ca         1 RIJ      -0.089000
     18 C19        -16.8690     8.1490    25.1540 ca         1 RIJ      -0.110000
     19 C18        -16.2060     6.9500    25.1100 ca         1 RIJ      -0.078000
     20 C16        -16.1850     4.5170    25.5740 ca         1 RIJ       0.372900
     21 C12        -21.1600     4.3830    26.5100 c          1 RIJ       0.569000
     22 O1         -21.2030     4.1630    25.3230 o          1 RIJ      -0.476000
     23 C11        -22.3060     4.4370    27.4860 c5         1 RIJ      -0.165400
     24 C9         -22.0460     4.0330    30.0250 ca         1 RIJ      -0.054300
     25 CL         -22.1330     0.1030    30.8450 cl         1 RIJ      -0.200000
     26 C3         -22.4840     6.1000    31.4260 c6         1 RIJ       0.220100
     27 C23        -22.1180     6.3700    29.0870 c6         1 RIJ       0.178800
     28 C2         -21.7200     8.2430    30.5660 c3         1 RIJ       0.084800
     29 C1         -20.4630     8.9280    30.0380 c          1 RIJ       0.584100
     30 O          -20.4480    10.1490    29.8550 o          1 RIJ      -0.625100
     31 N          -19.4100     8.1310    29.8350 ns         1 RIJ      -0.494900
     32 C          -18.1230     8.6180    29.3800 c3         1 RIJ       0.095300
     33 H2         -22.9800     4.2180    33.2750 ha         1 RIJ       0.122000
     34 H3         -22.8600     1.7590    33.0640 ha         1 RIJ       0.136000
     35 H4         -21.6540     2.1830    28.9820 ha         1 RIJ       0.130000
     36 H6         -18.6830     9.1750    25.7200 ha         1 RIJ       0.121000
     37 H7         -19.7970     7.1760    26.5920 ha         1 RIJ       0.117000
     38 H8         -16.3970     9.0470    24.7780 ha         1 RIJ       0.120000
     39 H9         -15.2060     6.8800    24.7010 ha         1 RIJ       0.120000
     40 H10        -15.1840     4.4510    25.1570 h4         1 RIJ       0.023100
     41 H11        -23.0700     5.1170    27.1080 hc         1 RIJ       0.094200
     42 H12        -22.7560     3.4460    27.5420 hc         1 RIJ       0.094200
     43 H13        -22.0960     6.3680    32.4100 h1         1 RIJ       0.051200
     44 H14        -23.5440     6.4070    31.4030 h1         1 RIJ       0.051200
     45 H15        -21.6580     7.0130    28.3350 h1         1 RIJ       0.049700
     46 H16        -23.2090     6.4430    28.9570 h1         1 RIJ       0.049700
     47 H17        -21.7720     8.4820    31.6310 h1         1 RIJ       0.066700
     48 H18        -22.5850     8.7250    30.0910 h1         1 RIJ       0.066700
     49 H19        -19.5360     7.1450    30.0240 hn         1 RIJ       0.352500
     50 H20        -17.5230     7.7670    29.0670 h1         1 RIJ       0.041700
     51 H21        -18.2500     9.2900    28.5320 h1         1 RIJ       0.041700
     52 H22        -17.5970     9.1550    30.1730 h1         1 RIJ       0.041700
     53 H5         -18.4000     2.5540    26.9220 h4         1 RIJ       0.028100
@<TRIPOS>BOND
     1     1    26 1   
     2     1    27 1   
     3     1    28 1   
     4     2    10 ar  
     5     2    20 ar  
     6     3     4 ar  
     7     3    24 ar  
     8     3    26 1   
     9     4     5 ar  
    10     4    33 1   
    11     5     6 ar  
    12     5    34 1   
    13     6     7 ar  
    14     6    25 1   
    15     7    24 ar  
    16     7    35 1   
    17     8     9 1   
    18     8    23 1   
    19     8    24 1   
    20     8    27 1   
    21     9    15 2   
    22     9    16 1   
    23    10    17 ar  
    24    10    53 1   
    25    11    14 ar  
    26    11    19 ar  
    27    11    20 ar  
    28    12    13 ar  
    29    12    18 ar  
    30    12    36 1   
    31    13    14 ar  
    32    13    37 1   
    33    14    17 ar  
    34    16    17 1   
    35    16    21 1   
    36    18    19 ar  
    37    18    38 1   
    38    19    39 1   
    39    20    40 1   
    40    21    22 2   
    41    21    23 1   
    42    23    41 1   
    43    23    42 1   
    44    26    43 1   
    45    26    44 1   
    46    27    45 1   
    47    27    46 1   
    48    28    29 1   
    49    28    47 1   
    50    28    48 1   
    51    29    30 2   
    52    29    31 1   
    53    31    32 1   
    54    31    49 1   
    55    32    50 1   
    56    32    51 1   
    57    32    52 1   
@<TRIPOS>SUBSTRUCTURE
     1 RIJ         1 TEMP              0 ****  ****    0 ROOT
