@<TRIPOS>MOLECULE
RIK
   41    44     1     0     0
SMALL
No Charge or Current Charge


@<TRIPOS>ATOM
      1 C18        -46.4690   -29.4110     6.5400 ca         1 RIK       0.187500
      2 C15        -48.6710   -28.5730     3.6680 ca         1 RIK      -0.035000
      3 C14        -50.0830   -28.5020     3.6900 ca         1 RIK      -0.174000
      4 C13        -50.7990   -28.7920     4.8750 ca         1 RIK       0.179000
      5 C12        -50.1250   -29.1470     6.0600 ca         1 RIK      -0.183000
      6 C11        -48.7310   -29.2140     6.0020 ca         1 RIK       0.000800
      7 C10        -48.0010   -28.9570     4.8480 cp         1 RIK      -0.054000
      8 C20        -44.2050   -29.4090     6.3580 ca         1 RIK       0.175900
      9 C02        -44.2620   -26.7750    -2.1440 c          1 RIK       0.714000
     10 C04        -43.3760   -26.8050     0.2770 c3         1 RIK      -0.044400
     11 C05        -44.5860   -27.5150     0.9560 c6         1 RIK       0.159300
     12 C06        -44.2610   -27.9500     2.4210 c6         1 RIK       0.168800
     13 C08        -45.3980   -28.9800     4.4220 ca         1 RIK       0.423900
     14 C09        -46.5840   -29.1040     5.1810 cp         1 RIK      -0.222000
     15 C22        -45.8340   -29.8660     2.1360 c6         1 RIK       0.163800
     16 C23        -46.0810   -29.3810     0.6770 c6         1 RIK       0.148600
     17 F16        -52.1470   -28.7110     4.8750 f          1 RIK      -0.191000
     18 N07        -45.3680   -28.7590     3.0290 nh         1 RIK      -0.753300
     19 N17        -47.7900   -29.4900     7.0000 na         1 RIK      -0.337300
     20 N19        -45.2880   -29.5680     7.1530 nb         1 RIK      -0.250000
     21 N21        -44.2000   -29.1290     5.0330 nb         1 RIK      -0.276000
     22 O01        -45.4750   -26.8020    -2.2950 o          1 RIK      -0.742500
     23 O24        -44.9230   -28.6810     0.1700 os         1 RIK      -0.402000
     24 O25        -43.4750   -27.3340    -2.8930 o          1 RIK      -0.742500
     25 H151       -48.1190   -28.3240     2.7670 ha         1 RIK       0.139000
     26 H141       -50.6240   -28.2140     2.7920 ha         1 RIK       0.135000
     27 H121       -50.6690   -29.3510     6.9780 ha         1 RIK       0.130000
     28 H201       -43.2330   -29.5270     6.8330 h5         1 RIK       0.042100
     29 H031       -42.7160   -25.5290    -1.2690 hc         1 RIK       0.019700
     30 H032       -44.4080   -25.1820    -0.6580 hc         1 RIK       0.019700
     31 H042       -42.6100   -27.5480     0.0200 hc         1 RIK       0.032700
     32 H041       -42.9050   -26.1390     1.0100 hc         1 RIK       0.032700
     33 H051       -45.4430   -26.8250     0.9700 h1         1 RIK       0.046700
     34 H061       -43.3270   -28.5320     2.4190 h1         1 RIK       0.057200
     35 H062       -44.0830   -27.0460     3.0220 h1         1 RIK       0.057200
     36 H221       -46.7620   -30.3100     2.5220 h1         1 RIK       0.048200
     37 H222       -45.0790   -30.6660     2.1160 h1         1 RIK       0.048200
     38 H232       -46.9500   -28.7100     0.6450 h1         1 RIK       0.053700
     39 H231       -46.2920   -30.2430     0.0280 h1         1 RIK       0.053700
     40 H171       -48.0300   -29.7150     7.9580 hn         1 RIK       0.361000
     41 C03        -43.6890   -25.9450    -0.9790 c3         1 RIK      -0.196400
@<TRIPOS>BOND
     1     1    14 ar  
     2     1    19 1   
     3     1    20 ar  
     4     2     3 ar  
     5     2     7 ar  
     6     2    25 1   
     7     3     4 ar  
     8     3    26 1   
     9     4     5 ar  
    10     4    17 1   
    11     5     6 ar  
    12     5    27 1   
    13     6     7 ar  
    14     6    19 1   
    15     7    14 1   
    16     8    20 ar  
    17     8    21 ar  
    18     8    28 1   
    19     9    22 1   
    20     9    24 1   
    21     9    41 1   
    22    10    11 1   
    23    10    31 1   
    24    10    32 1   
    25    10    41 1   
    26    11    12 1   
    27    11    23 1   
    28    11    33 1   
    29    12    18 1   
    30    12    34 1   
    31    12    35 1   
    32    13    14 ar  
    33    13    18 1   
    34    13    21 ar  
    35    15    16 1   
    36    15    18 1   
    37    15    36 1   
    38    15    37 1   
    39    16    23 1   
    40    16    38 1   
    41    16    39 1   
    42    19    40 1   
    43    29    41 1   
    44    30    41 1   
@<TRIPOS>SUBSTRUCTURE
     1 RIK         1 TEMP              0 ****  ****    0 ROOT
