@<TRIPOS>MOLECULE
RIK
   41    44     1     0     0
SMALL
abcg2


@<TRIPOS>ATOM
      1 C18        -46.4810   -29.2880     6.3980 ca         1 RIK       0.187500
      2 C15        -48.8540   -28.7430     3.6410 ca         1 RIK      -0.035000
      3 C14        -50.2360   -28.8060     3.7590 ca         1 RIK      -0.174000
      4 C13        -50.7990   -29.1610     4.9800 ca         1 RIK       0.179000
      5 C12        -50.0620   -29.4390     6.1140 ca         1 RIK      -0.183000
      6 C11        -48.6810   -29.3600     5.9770 ca         1 RIK       0.000800
      7 C10        -48.0490   -29.0410     4.7430 cp         1 RIK      -0.054000
      8 C20        -44.2940   -28.8990     6.3340 ca         1 RIK       0.175900
      9 C02        -44.1770   -26.7090    -2.0970 c          1 RIK       0.714000
     10 C04        -43.1850   -27.0830     0.2630 c3         1 RIK      -0.044400
     11 C05        -44.4360   -27.5670     0.9770 c6         1 RIK       0.159300
     12 C06        -44.1240   -28.1520     2.3510 c6         1 RIK       0.168800
     13 C08        -45.4200   -28.7990     4.3190 ca         1 RIK       0.423900
     14 C09        -46.6240   -29.0380     5.0140 cp         1 RIK      -0.222000
     15 C22        -46.0370   -29.6220     2.0960 c6         1 RIK       0.163800
     16 C23        -46.2930   -29.0050     0.7350 c6         1 RIK       0.148600
     17 F16        -52.1540   -29.2200     5.0660 f          1 RIK      -0.191000
     18 N07        -45.3560   -28.6530     2.9580 nh         1 RIK      -0.753300
     19 N17        -47.7120   -29.5230     6.9460 na         1 RIK      -0.337300
     20 N19        -45.3380   -29.2440     7.0860 nb         1 RIK      -0.250000
     21 N21        -44.2730   -28.6860     5.0200 nb         1 RIK      -0.276000
     22 O01        -45.3140   -26.2510    -2.3870 o          1 RIK      -0.742500
     23 O24        -45.0810   -28.5440     0.1540 os         1 RIK      -0.402000
     24 O25        -43.5620   -27.6090    -2.7290 o          1 RIK      -0.742500
     25 H151       -48.4250   -28.4380     2.6990 ha         1 RIK       0.139000
     26 H141       -50.8800   -28.5790     2.9210 ha         1 RIK       0.135000
     27 H121       -50.5410   -29.6840     7.0520 ha         1 RIK       0.130000
     28 H201       -43.3440   -28.7950     6.8490 h5         1 RIK       0.042100
     29 H031       -42.4970   -25.7090    -1.2300 hc         1 RIK       0.019700
     30 H032       -44.0380   -25.2570    -0.5000 hc         1 RIK       0.019700
     31 H042       -42.6360   -27.9520    -0.1090 hc         1 RIK       0.032700
     32 H041       -42.5460   -26.5920     1.0020 hc         1 RIK       0.032700
     33 H051       -45.1300   -26.7260     1.1190 h1         1 RIK       0.046700
     34 H061       -43.3800   -28.9540     2.2530 h1         1 RIK       0.057200
     35 H062       -43.7060   -27.3780     2.9890 h1         1 RIK       0.057200
     36 H221       -46.9660   -29.9530     2.5470 h1         1 RIK       0.048200
     37 H222       -45.3930   -30.5030     1.9760 h1         1 RIK       0.048200
     38 H232       -47.0020   -28.1720     0.8250 h1         1 RIK       0.053700
     39 H231       -46.7080   -29.7500     0.0560 h1         1 RIK       0.053700
     40 H171       -47.8810   -29.6790     7.9270 hn         1 RIK       0.361000
     41 C03        -43.4570   -26.1000    -0.8810 c3         1 RIK      -0.196400
@<TRIPOS>BOND
     1     1    14 ar  
     2     1    19 1   
     3     1    20 ar  
     4     2     3 ar  
     5     2     7 ar  
     6     2    25 1   
     7     3     4 ar  
     8     3    26 1   
     9     4     5 ar  
    10     4    17 1   
    11     5     6 ar  
    12     5    27 1   
    13     6     7 ar  
    14     6    19 1   
    15     7    14 1   
    16     8    20 ar  
    17     8    21 ar  
    18     8    28 1   
    19     9    22 1   
    20     9    24 1   
    21     9    41 1   
    22    10    11 1   
    23    10    31 1   
    24    10    32 1   
    25    10    41 1   
    26    11    12 1   
    27    11    23 1   
    28    11    33 1   
    29    12    18 1   
    30    12    34 1   
    31    12    35 1   
    32    13    14 ar  
    33    13    18 1   
    34    13    21 ar  
    35    15    16 1   
    36    15    18 1   
    37    15    36 1   
    38    15    37 1   
    39    16    23 1   
    40    16    38 1   
    41    16    39 1   
    42    19    40 1   
    43    29    41 1   
    44    30    41 1   
@<TRIPOS>SUBSTRUCTURE
     1 RIK         1 TEMP              0 ****  ****    0 ROOT
