@<TRIPOS>MOLECULE
RIL
   40    40     1     0     0
SMALL
No Charge or Current Charge


@<TRIPOS>ATOM
      1 C1          -2.4780    -1.0800    -3.3020 c2         1 RIL      -0.348000
      2 C2          -1.5440    -0.2330    -2.8450 c2         1 RIL      -0.194200
      3 C5          -0.3450    -0.6240    -2.0060 c3         1 RIL      -0.054200
      4 C7          -0.3740     0.0260    -0.6070 c3         1 RIL      -0.069400
      5 C10          0.8470    -0.3450     0.2620 c3         1 RIL      -0.044400
      6 C13          0.8460     0.3700     1.6340 c3         1 RIL      -0.443400
      7 P16          2.3680     0.1300     2.6440 p5         1 RIL       1.403400
      8 O20          2.6450    -1.3310     2.7900 o          1 RIL      -0.819000
      9 O21          3.4780     0.8440     1.7120 os         1 RIL      -0.576400
     10 C23          3.4770     2.2700     1.5420 c3         1 RIL       0.221600
     11 C24          3.7340     2.6020     0.0430 c5         1 RIL       0.127300
     12 C27          4.0780     4.1010    -0.2370 c5         1 RIL       0.118600
     13 O28          2.5630     2.3650    -0.7860 os         1 RIL      -0.451000
     14 C30          2.0160     3.6410    -1.1530 c5         1 RIL       0.388000
     15 O31          3.1820     4.4620    -1.3140 os         1 RIL      -0.478000
     16 C34          1.2820     3.5090    -2.5010 c3         1 RIL      -0.106100
     17 C38          1.0690     4.2060    -0.0590 c3         1 RIL      -0.106100
     18 O1           2.2320     0.8170     3.9630 o          1 RIL      -0.819000
     19 H11         -3.3180    -0.7310    -3.9050 ha         1 RIL       0.152500
     20 H12         -2.4380    -2.1500    -3.0900 ha         1 RIL       0.152500
     21 H2          -1.6070     0.8340    -3.0730 ha         1 RIL       0.155000
     22 H51         -0.2980    -1.7140    -1.8910 hc         1 RIL       0.044700
     23 H52          0.5760    -0.3250    -2.5210 hc         1 RIL       0.044700
     24 H71         -1.2920    -0.2750    -0.0880 hc         1 RIL       0.026700
     25 H72         -0.4150     1.1160    -0.7220 hc         1 RIL       0.026700
     26 H101         0.8660    -1.4320     0.4170 hc         1 RIL       0.049700
     27 H102         1.7640    -0.0920    -0.2840 hc         1 RIL       0.049700
     28 H131         0.7050     1.4460     1.4990 hc         1 RIL       0.039700
     29 H132         0.0070     0.0080     2.2380 hc         1 RIL       0.039700
     30 H231         2.5360     2.7220     1.8760 h1         1 RIL       0.015700
     31 H232         4.2860     2.7090     2.1400 h1         1 RIL       0.015700
     32 H24          4.5480     1.9570    -0.3140 h1         1 RIL       0.074700
     33 H271         3.8800     4.7420     0.6330 h1         1 RIL       0.047200
     34 H272         5.1190     4.2460    -0.5530 h1         1 RIL       0.047200
     35 H341         0.9260     4.4830    -2.8550 hc         1 RIL       0.044867
     36 H342         1.9450     3.0940    -3.2700 hc         1 RIL       0.044867
     37 H343         0.4140     2.8460    -2.4140 hc         1 RIL       0.044867
     38 H381         0.2810     3.4830     0.1830 hc         1 RIL       0.044867
     39 H382         1.5870     4.4620     0.8700 hc         1 RIL       0.044867
     40 H383         0.5760     5.1190    -0.4110 hc         1 RIL       0.044867
@<TRIPOS>BOND
     1     1     2 2   
     2     1    19 1   
     3     1    20 1   
     4     2     3 1   
     5     2    21 1   
     6     3     4 1   
     7     3    22 1   
     8     3    23 1   
     9     4     5 1   
    10     4    24 1   
    11     4    25 1   
    12     5     6 1   
    13     5    26 1   
    14     5    27 1   
    15     6     7 1   
    16     6    28 1   
    17     6    29 1   
    18     7     8 1   
    19     7     9 1   
    20     7    18 1   
    21     9    10 1   
    22    10    11 1   
    23    10    30 1   
    24    10    31 1   
    25    11    12 1   
    26    11    13 1   
    27    11    32 1   
    28    12    15 1   
    29    12    33 1   
    30    12    34 1   
    31    13    14 1   
    32    14    15 1   
    33    14    16 1   
    34    14    17 1   
    35    16    35 1   
    36    16    36 1   
    37    16    37 1   
    38    17    38 1   
    39    17    39 1   
    40    17    40 1   
@<TRIPOS>SUBSTRUCTURE
     1 RIL         1 TEMP              0 ****  ****    0 ROOT
