@<TRIPOS>MOLECULE
RIL
   40    40     1     0     0
SMALL
bcc


@<TRIPOS>ATOM
      1 C1          -2.8440    -0.9790    -2.9130 c2         1 RIL      -0.248000
      2 C2          -2.0720    -0.0600    -2.3430 c2         1 RIL      -0.144200
      3 C5          -0.7080    -0.3050    -1.7840 c3         1 RIL      -0.054200
      4 C7          -0.6320    -0.0270    -0.2820 c3         1 RIL      -0.069400
      5 C10          0.7760    -0.2030     0.2720 c3         1 RIL      -0.044400
      6 C13          0.8810     0.1460     1.7510 c3         1 RIL      -0.285600
      7 P16          2.5490    -0.0760     2.4680 p5         1 RIL       1.245600
      8 O20          3.0360    -1.4750     2.2040 o          1 RIL      -0.819000
      9 O21          3.4900     0.8730     1.4840 os         1 RIL      -0.553200
     10 C23          3.3580     2.2720     1.5260 c3         1 RIL       0.198400
     11 C24          3.8470     2.8600     0.2190 c5         1 RIL       0.104100
     12 C27          3.7490     4.3930     0.1990 c5         1 RIL       0.095400
     13 O28          3.0530     2.4570    -0.8820 os         1 RIL      -0.404600
     14 C30          2.3930     3.5850    -1.4230 c5         1 RIL       0.341600
     15 O31          3.2030     4.6820    -1.0670 os         1 RIL      -0.431600
     16 C34          2.3600     3.4620    -2.9330 c3         1 RIL      -0.106100
     17 C38          0.9900     3.7280    -0.8390 c3         1 RIL      -0.106100
     18 O1           2.5690     0.4910     3.8630 o          1 RIL      -0.819000
     19 H11         -3.8300    -0.7400    -3.2900 ha         1 RIL       0.102500
     20 H12         -2.5180    -2.0070    -3.0250 ha         1 RIL       0.102500
     21 H2          -2.4470     0.9560    -2.2510 ha         1 RIL       0.105000
     22 H51         -0.3950    -1.3330    -1.9860 hc         1 RIL       0.044700
     23 H52          0.0130     0.3460    -2.2940 hc         1 RIL       0.044700
     24 H71         -1.3270    -0.6890     0.2440 hc         1 RIL       0.026700
     25 H72         -0.9770     0.9950    -0.0850 hc         1 RIL       0.026700
     26 H101         1.1050    -1.2350     0.1170 hc         1 RIL       0.049700
     27 H102         1.4630     0.4280    -0.2970 hc         1 RIL       0.049700
     28 H131         0.5440     1.1750     1.9130 hc         1 RIL       0.039700
     29 H132         0.2000    -0.4820     2.3350 hc         1 RIL       0.039700
     30 H231         2.3210     2.5880     1.6910 h1         1 RIL       0.015700
     31 H232         3.9520     2.7000     2.3440 h1         1 RIL       0.015700
     32 H24          4.8750     2.5300     0.0380 h1         1 RIL       0.074700
     33 H271         3.1110     4.7660     1.0120 h1         1 RIL       0.047200
     34 H272         4.7210     4.8790     0.2880 h1         1 RIL       0.047200
     35 H341         1.9070     4.3460    -3.3810 hc         1 RIL       0.044867
     36 H342         3.3650     3.3420    -3.3360 hc         1 RIL       0.044867
     37 H343         1.7640     2.5980    -3.2300 hc         1 RIL       0.044867
     38 H381         0.4100     2.8190    -1.0050 hc         1 RIL       0.044867
     39 H382         1.0050     3.9170     0.2350 hc         1 RIL       0.044867
     40 H383         0.4610     4.5560    -1.3140 hc         1 RIL       0.044867
@<TRIPOS>BOND
     1     1     2 2   
     2     1    19 1   
     3     1    20 1   
     4     2     3 1   
     5     2    21 1   
     6     3     4 1   
     7     3    22 1   
     8     3    23 1   
     9     4     5 1   
    10     4    24 1   
    11     4    25 1   
    12     5     6 1   
    13     5    26 1   
    14     5    27 1   
    15     6     7 1   
    16     6    28 1   
    17     6    29 1   
    18     7     8 1   
    19     7     9 1   
    20     7    18 1   
    21     9    10 1   
    22    10    11 1   
    23    10    30 1   
    24    10    31 1   
    25    11    12 1   
    26    11    13 1   
    27    11    32 1   
    28    12    15 1   
    29    12    33 1   
    30    12    34 1   
    31    13    14 1   
    32    14    15 1   
    33    14    16 1   
    34    14    17 1   
    35    16    35 1   
    36    16    36 1   
    37    16    37 1   
    38    17    38 1   
    39    17    39 1   
    40    17    40 1   
@<TRIPOS>SUBSTRUCTURE
     1 RIL         1 TEMP              0 ****  ****    0 ROOT
