@<TRIPOS>MOLECULE
RIM
   34    36     1     0     0
SMALL
No Charge or Current Charge


@<TRIPOS>ATOM
      1 CA          -3.0120     1.2310    -0.0940 c3         1 RIM      -0.128100
      2 CB          -2.2330     0.0040     0.4350 c3         1 RIM       0.164500
      3 NC          -2.9080    -1.2030    -0.0800 n8         1 RIM      -0.989200
      4 CD          -0.6680     0.0060     0.1850 c6         1 RIM      -0.032000
      5 CE1         -0.0040     1.2780     0.8240 c6         1 RIM      -0.062733
      6 CE2         -0.0150    -1.2560     0.8580 c6         1 RIM      -0.062733
      7 CE3         -0.3070    -0.0150    -1.3430 c6         1 RIM      -0.062733
      8 CF1          1.5390     1.2680     0.6190 c6         1 RIM      -0.059033
      9 CF2          1.5270    -1.2690     0.6520 c6         1 RIM      -0.059033
     10 CF3          1.2380    -0.0270    -1.5470 c6         1 RIM      -0.059033
     11 CG1          2.1440     0.0050     1.2930 c6         1 RIM      -0.067733
     12 CG2          1.8420    -1.2910    -0.8710 c6         1 RIM      -0.067733
     13 CG3          1.8560     1.2470    -0.9030 c6         1 RIM      -0.067733
     14 HA1         -2.9050     1.3410    -1.1800 hc         1 RIM       0.035367
     15 HA2         -4.0810     1.1370     0.1310 hc         1 RIM       0.035367
     16 HA3         -2.6680     2.1560     0.3820 hc         1 RIM       0.035367
     17 HB          -2.3730    -0.0020     1.5260 h1         1 RIM       0.055700
     18 HNC1        -3.9210    -1.0820     0.0180 hn         1 RIM       0.388000
     19 HNC2        -2.7660    -1.2470    -1.0940 hn         1 RIM       0.388000
     20 HE11        -0.4090     2.1940     0.3750 hc         1 RIM       0.041033
     21 HE12        -0.2380     1.3310     1.8960 hc         1 RIM       0.041033
     22 HE21        -0.2450    -1.2730     1.9330 hc         1 RIM       0.041033
     23 HE22        -0.4380    -2.1800     0.4420 hc         1 RIM       0.041033
     24 HE31        -0.7450    -0.8960    -1.8320 hc         1 RIM       0.041033
     25 HE32        -0.7300     0.8610    -1.8520 hc         1 RIM       0.041033
     26 HF1          1.9750     2.1690     1.0720 hc         1 RIM       0.046367
     27 HF2          1.9540    -2.1620     1.1280 hc         1 RIM       0.046367
     28 HF3          1.4650    -0.0420    -2.6220 hc         1 RIM       0.046367
     29 HG11         3.2360    -0.0020     1.1760 hc         1 RIM       0.038200
     30 HG12         1.9470     0.0200     2.3740 hc         1 RIM       0.038200
     31 HG21         2.9280    -1.3250    -1.0330 hc         1 RIM       0.038200
     32 HG22         1.4310    -2.2000    -1.3310 hc         1 RIM       0.038200
     33 HG31         1.4550     2.1490    -1.3870 hc         1 RIM       0.038200
     34 HG32         2.9420     1.2650    -1.0650 hc         1 RIM       0.038200
@<TRIPOS>BOND
     1     1     2 1   
     2     1    14 1   
     3     1    15 1   
     4     1    16 1   
     5     2     3 1   
     6     2     4 1   
     7     2    17 1   
     8     3    18 1   
     9     3    19 1   
    10     4     5 1   
    11     4     6 1   
    12     4     7 1   
    13     5     8 1   
    14     5    20 1   
    15     5    21 1   
    16     6     9 1   
    17     6    22 1   
    18     6    23 1   
    19     7    10 1   
    20     7    24 1   
    21     7    25 1   
    22     8    11 1   
    23     8    13 1   
    24     8    26 1   
    25     9    11 1   
    26     9    12 1   
    27     9    27 1   
    28    10    12 1   
    29    10    13 1   
    30    10    28 1   
    31    11    29 1   
    32    11    30 1   
    33    12    31 1   
    34    12    32 1   
    35    13    33 1   
    36    13    34 1   
@<TRIPOS>SUBSTRUCTURE
     1 RIM         1 TEMP              0 ****  ****    0 ROOT
