@<TRIPOS>MOLECULE
RIM
   34    36     1     0     0
SMALL
abcg2


@<TRIPOS>ATOM
      1 CA          -2.9080     1.2560    -0.0870 c3         1 RIM      -0.128100
      2 CB          -2.1880     0.0020     0.4170 c3         1 RIM       0.164500
      3 NC          -2.7930    -1.2200    -0.1110 n8         1 RIM      -0.989200
      4 CD          -0.6630     0.0040     0.1730 c6         1 RIM      -0.032000
      5 CE1         -0.0220     1.2550     0.7960 c6         1 RIM      -0.062733
      6 CE2         -0.0290    -1.2320     0.8340 c6         1 RIM      -0.062733
      7 CE3         -0.3090    -0.0210    -1.3220 c6         1 RIM      -0.062733
      8 CF1          1.4980     1.2460     0.6120 c6         1 RIM      -0.059033
      9 CF2          1.4890    -1.2450     0.6420 c6         1 RIM      -0.059033
     10 CF3          1.2120    -0.0250    -1.5180 c6         1 RIM      -0.059033
     11 CG1          2.0970     0.0060     1.2760 c6         1 RIM      -0.067733
     12 CG2          1.8070    -1.2670    -0.8540 c6         1 RIM      -0.067733
     13 CG3          1.8140     1.2300    -0.8850 c6         1 RIM      -0.067733
     14 HA1         -2.8080     1.3710    -1.1690 hc         1 RIM       0.035367
     15 HA2         -3.9740     1.1780     0.1330 hc         1 RIM       0.035367
     16 HA3         -2.5500     2.1740     0.3800 hc         1 RIM       0.035367
     17 HB          -2.3200    -0.0350     1.5050 h1         1 RIM       0.055700
     18 HNC1        -3.7740    -1.2310     0.1410 hn         1 RIM       0.388000
     19 HNC2        -2.7850    -1.1860    -1.1240 hn         1 RIM       0.388000
     20 HE11        -0.4230     2.1600     0.3310 hc         1 RIM       0.041033
     21 HE12        -0.2750     1.3120     1.8620 hc         1 RIM       0.041033
     22 HE21        -0.2700    -1.2400     1.9040 hc         1 RIM       0.041033
     23 HE22        -0.4660    -2.1390     0.4100 hc         1 RIM       0.041033
     24 HE31        -0.7290    -0.9130    -1.8000 hc         1 RIM       0.041033
     25 HE32        -0.7370     0.8490    -1.8310 hc         1 RIM       0.041033
     26 HF1          1.9190     2.1480     1.0670 hc         1 RIM       0.046367
     27 HF2          1.9040    -2.1380     1.1190 hc         1 RIM       0.046367
     28 HF3          1.4340    -0.0390    -2.5900 hc         1 RIM       0.046367
     29 HG11         3.1860     0.0030     1.1560 hc         1 RIM       0.038200
     30 HG12         1.8970     0.0210     2.3520 hc         1 RIM       0.038200
     31 HG21         2.8900    -1.3020    -1.0120 hc         1 RIM       0.038200
     32 HG22         1.3910    -2.1720    -1.3120 hc         1 RIM       0.038200
     33 HG31         1.4020     2.1260    -1.3630 hc         1 RIM       0.038200
     34 HG32         2.8970     1.2560    -1.0460 hc         1 RIM       0.038200
@<TRIPOS>BOND
     1     1     2 1   
     2     1    14 1   
     3     1    15 1   
     4     1    16 1   
     5     2     3 1   
     6     2     4 1   
     7     2    17 1   
     8     3    18 1   
     9     3    19 1   
    10     4     5 1   
    11     4     6 1   
    12     4     7 1   
    13     5     8 1   
    14     5    20 1   
    15     5    21 1   
    16     6     9 1   
    17     6    22 1   
    18     6    23 1   
    19     7    10 1   
    20     7    24 1   
    21     7    25 1   
    22     8    11 1   
    23     8    13 1   
    24     8    26 1   
    25     9    11 1   
    26     9    12 1   
    27     9    27 1   
    28    10    12 1   
    29    10    13 1   
    30    10    28 1   
    31    11    29 1   
    32    11    30 1   
    33    12    31 1   
    34    12    32 1   
    35    13    33 1   
    36    13    34 1   
@<TRIPOS>SUBSTRUCTURE
     1 RIM         1 TEMP              0 ****  ****    0 ROOT
