@<TRIPOS>MOLECULE
RIN
   39    39     1     0     0
SMALL
No Charge or Current Charge


@<TRIPOS>ATOM
      1 N            0.8520    -1.5410     3.1280 n8         1 RIN      -1.017200
      2 CA           1.0120    -0.2630     2.3410 c3         1 RIN       0.092500
      3 CB           1.7270    -0.5590     0.9910 c3         1 RIN      -0.074400
      4 CG           2.3020     0.7050     0.3000 c3         1 RIN      -0.078400
      5 CD           2.7850     0.5230    -1.1650 c3         1 RIN      -0.071400
      6 CE           1.6720     0.6470    -2.2430 c3         1 RIN      -0.074400
      7 CZ           1.0330    -0.6860    -2.7110 c3         1 RIN      -0.080400
      8 C5          -0.3310    -0.5050    -3.4330 c3         1 RIN      -0.073400
      9 C4          -1.5790    -0.7110    -2.5330 c3         1 RIN      -0.073400
     10 C3          -1.6440     0.1970    -1.2820 c3         1 RIN      -0.082400
     11 C2          -2.8090    -0.1530    -0.3200 c3         1 RIN      -0.096400
     12 C1          -2.6210     0.3960     1.1140 c3         1 RIN       0.098000
     13 N1          -1.4090    -0.1640     1.7240 ns         1 RIN      -0.510900
     14 C           -0.3010     0.5740     2.0990 c          1 RIN       0.561100
     15 O           -0.3530     1.7870     2.2510 o          1 RIN      -0.598100
     16 H            0.2640    -2.2080     2.6160 hn         1 RIN       0.405500
     17 HN2          0.3220    -1.3540     3.9900 hn         1 RIN       0.405500
     18 HA           1.6710     0.3950     2.9270 h1         1 RIN       0.094700
     19 HB1          2.5530    -1.2620     1.1590 hc         1 RIN       0.046700
     20 HB2          1.0210    -1.0660     0.3270 hc         1 RIN       0.046700
     21 HG1          1.5700     1.5200     0.3270 hc         1 RIN       0.050200
     22 HG2          3.1530     1.0520     0.9000 hc         1 RIN       0.050200
     23 HD1          3.5200     1.3120    -1.3640 hc         1 RIN       0.039200
     24 HD2          3.3250    -0.4260    -1.2760 hc         1 RIN       0.039200
     25 HE1          0.9000     1.3390    -1.8880 hc         1 RIN       0.039200
     26 HE2          2.1050     1.1300    -3.1280 hc         1 RIN       0.039200
     27 HZ1          1.7360    -1.1720    -3.4000 hc         1 RIN       0.036700
     28 HZ2          0.9130    -1.3810    -1.8730 hc         1 RIN       0.036700
     29 H51         -0.3760     0.4840    -3.9070 hc         1 RIN       0.040200
     30 H52         -0.3880    -1.2340    -4.2510 hc         1 RIN       0.040200
     31 H41         -2.4830    -0.5550    -3.1360 hc         1 RIN       0.035700
     32 H42         -1.5980    -1.7590    -2.2110 hc         1 RIN       0.035700
     33 H31         -0.7010     0.1020    -0.7410 hc         1 RIN       0.047700
     34 H32         -1.7240     1.2470    -1.5880 hc         1 RIN       0.047700
     35 H21         -3.7490     0.2290    -0.7360 hc         1 RIN       0.040700
     36 H22         -2.9150    -1.2430    -0.2560 hc         1 RIN       0.040700
     37 H11         -2.5620     1.4920     1.0820 h1         1 RIN       0.059200
     38 H12         -3.4870     0.1190     1.7300 h1         1 RIN       0.059200
     39 HN1         -1.2780    -1.1650     1.6620 hn         1 RIN       0.299500
@<TRIPOS>BOND
     1     1     2 1   
     2     1    16 1   
     3     1    17 1   
     4     2     3 1   
     5     2    14 1   
     6     2    18 1   
     7     3     4 1   
     8     3    19 1   
     9     3    20 1   
    10     4     5 1   
    11     4    21 1   
    12     4    22 1   
    13     5     6 1   
    14     5    23 1   
    15     5    24 1   
    16     6     7 1   
    17     6    25 1   
    18     6    26 1   
    19     7     8 1   
    20     7    27 1   
    21     7    28 1   
    22     8     9 1   
    23     8    29 1   
    24     8    30 1   
    25     9    10 1   
    26     9    31 1   
    27     9    32 1   
    28    10    11 1   
    29    10    33 1   
    30    10    34 1   
    31    11    12 1   
    32    11    35 1   
    33    11    36 1   
    34    12    13 1   
    35    12    37 1   
    36    12    38 1   
    37    13    14 1   
    38    13    39 1   
    39    14    15 2   
@<TRIPOS>SUBSTRUCTURE
     1 RIN         1 TEMP              0 ****  ****    0 ROOT
