@<TRIPOS>MOLECULE
RIN
   39    39     1     0     0
SMALL
bcc


@<TRIPOS>ATOM
      1 N            0.8960    -1.3540     3.1080 n8         1 RIN      -0.906800
      2 CA           0.9970    -0.1660     2.2810 c3         1 RIN       0.092500
      3 CB           1.7540    -0.5200     0.9930 c3         1 RIN      -0.074400
      4 CG           2.1840     0.6730     0.1440 c3         1 RIN      -0.078400
      5 CD           2.9090     0.3060    -1.1660 c3         1 RIN      -0.071400
      6 CE           2.0290     0.4520    -2.4080 c3         1 RIN      -0.074400
      7 CZ           0.8970    -0.5740    -2.4910 c3         1 RIN      -0.080400
      8 C5          -0.3450    -0.1170    -3.2750 c3         1 RIN      -0.073400
      9 C4          -1.6410    -0.5060    -2.5620 c3         1 RIN      -0.073400
     10 C3          -1.8340     0.2780    -1.2640 c3         1 RIN      -0.082400
     11 C2          -2.8330    -0.3430    -0.2920 c3         1 RIN      -0.096400
     12 C1          -2.6430     0.1340     1.1460 c3         1 RIN       0.098000
     13 N1          -1.3640    -0.2810     1.6840 ns         1 RIN      -0.577900
     14 C           -0.3240     0.5330     1.9310 c          1 RIN       0.628100
     15 O           -0.3890     1.7540     1.8550 o          1 RIN      -0.598100
     16 H            0.5560    -2.1540     2.5900 hn         1 RIN       0.350300
     17 HN2          0.2740    -1.2130     3.8930 hn         1 RIN       0.350300
     18 HA           1.5810     0.5790     2.8300 h1         1 RIN       0.094700
     19 HB1          2.6440    -1.0820     1.2920 hc         1 RIN       0.046700
     20 HB2          1.1430    -1.2140     0.4060 hc         1 RIN       0.046700
     21 HG1          1.3230     1.3020    -0.0970 hc         1 RIN       0.050200
     22 HG2          2.8350     1.3000     0.7590 hc         1 RIN       0.050200
     23 HD1          3.7770     0.9600    -1.2840 hc         1 RIN       0.039200
     24 HD2          3.3130    -0.7110    -1.1060 hc         1 RIN       0.039200
     25 HE1          1.6020     1.4610    -2.3990 hc         1 RIN       0.039200
     26 HE2          2.6470     0.4000    -3.3090 hc         1 RIN       0.039200
     27 HZ1          1.2800    -1.5090    -2.9080 hc         1 RIN       0.036700
     28 HZ2          0.5850    -0.8290    -1.4770 hc         1 RIN       0.036700
     29 H51         -0.3270     0.9710    -3.4000 hc         1 RIN       0.040200
     30 H52         -0.3350    -0.5320    -4.2860 hc         1 RIN       0.040200
     31 H41         -2.5000    -0.3580    -3.2220 hc         1 RIN       0.035700
     32 H42         -1.6120    -1.5790    -2.3390 hc         1 RIN       0.035700
     33 H31         -0.8670     0.3600    -0.7610 hc         1 RIN       0.047700
     34 H32         -2.1310     1.3050    -1.4960 hc         1 RIN       0.047700
     35 H21         -3.8590    -0.1260    -0.6010 hc         1 RIN       0.040700
     36 H22         -2.7370    -1.4340    -0.3110 hc         1 RIN       0.040700
     37 H11         -2.7020     1.2200     1.2060 h1         1 RIN       0.059200
     38 H12         -3.4390    -0.2680     1.7780 h1         1 RIN       0.059200
     39 HN1         -1.2190    -1.2730     1.7810 hn         1 RIN       0.299500
@<TRIPOS>BOND
     1     1     2 1   
     2     1    16 1   
     3     1    17 1   
     4     2     3 1   
     5     2    14 1   
     6     2    18 1   
     7     3     4 1   
     8     3    19 1   
     9     3    20 1   
    10     4     5 1   
    11     4    21 1   
    12     4    22 1   
    13     5     6 1   
    14     5    23 1   
    15     5    24 1   
    16     6     7 1   
    17     6    25 1   
    18     6    26 1   
    19     7     8 1   
    20     7    27 1   
    21     7    28 1   
    22     8     9 1   
    23     8    29 1   
    24     8    30 1   
    25     9    10 1   
    26     9    31 1   
    27     9    32 1   
    28    10    11 1   
    29    10    33 1   
    30    10    34 1   
    31    11    12 1   
    32    11    35 1   
    33    11    36 1   
    34    12    13 1   
    35    12    37 1   
    36    12    38 1   
    37    13    14 1   
    38    13    39 1   
    39    14    15 2   
@<TRIPOS>SUBSTRUCTURE
     1 RIN         1 TEMP              0 ****  ****    0 ROOT
