@<TRIPOS>MOLECULE
RIO
   65    67     1     0     0
SMALL
bcc


@<TRIPOS>ATOM
      1 O1          -1.4860     3.9940     0.8110 oh         1 RIO      -0.617800
      2 C1          -2.6750     3.2580     0.8520 c3         1 RIO       0.138400
      3 C2          -2.9340     2.4750    -0.4310 c5         1 RIO       0.099100
      4 O2          -1.9070     1.5090    -0.6690 os         1 RIO      -0.411600
      5 C3          -2.3690     0.2080    -0.4280 c5         1 RIO       0.315900
      6 O3          -1.5130    -0.4490     0.4560 os         1 RIO      -0.428600
      7 C4          -0.7700    -1.5430    -0.0350 c6         1 RIO       0.159100
      8 C5          -1.4860    -2.8440     0.2840 c6         1 RIO       0.131100
      9 O4          -2.7660    -2.8400    -0.3110 oh         1 RIO      -0.622800
     10 C6          -0.6790    -4.0340    -0.2220 c6         1 RIO       0.118500
     11 N1          -1.4670    -5.2340     0.0070 n8         1 RIO      -0.904800
     12 C7           0.7060    -4.0110     0.4130 c6         1 RIO      -0.115400
     13 C8           1.4550    -2.7120     0.1180 c6         1 RIO       0.149500
     14 N2           2.7450    -2.7490     0.7890 n8         1 RIO      -0.901800
     15 C9           0.6220    -1.5190     0.6010 c6         1 RIO       0.166100
     16 O5           1.1780    -0.2750     0.2390 os         1 RIO      -0.442600
     17 C10          2.0780     0.3720     1.0870 c6         1 RIO       0.312900
     18 O6           3.3880     0.2370     0.6290 os         1 RIO      -0.399600
     19 C11          3.6060     0.7380    -0.6800 c6         1 RIO       0.117100
     20 C12          5.0350     0.3930    -1.0570 c3         1 RIO       0.152800
     21 N3           5.2110    -1.0500    -1.1090 n8         1 RIO      -0.882800
     22 C13          3.3030     2.2380    -0.7040 c6         1 RIO       0.078100
     23 O7           3.3760     2.7610    -2.0140 oh         1 RIO      -0.596800
     24 C14          1.8900     2.5150    -0.1880 c6         1 RIO       0.160100
     25 O8           1.6750     3.8980    -0.0450 oh         1 RIO      -0.579800
     26 C15          1.6860     1.8540     1.1710 c6         1 RIO       0.147500
     27 N4           0.3320     2.0450     1.6630 n8         1 RIO      -0.889800
     28 C16         -3.7580     0.3630     0.1960 c5         1 RIO       0.073100
     29 O9          -4.6360    -0.6900    -0.0820 oh         1 RIO      -0.609800
     30 C17         -4.2360     1.6800    -0.4010 c5         1 RIO       0.122100
     31 O10         -4.6970     1.5040    -1.7180 oh         1 RIO      -0.594800
     32 HO1         -0.7390     3.3960     1.0470 ho         1 RIO       0.459000
     33 H1          -2.7080     2.5800     1.7180 h1         1 RIO       0.029200
     34 H1A         -3.5060     3.9600     0.9790 h1         1 RIO       0.029200
     35 H2          -2.9360     3.1790    -1.2700 h1         1 RIO       0.098700
     36 H3          -2.4210    -0.3430    -1.3770 h2         1 RIO       0.065700
     37 H4          -0.6520    -1.4620    -1.1250 h1         1 RIO       0.063700
     38 H5          -1.5790    -2.9310     1.3800 h1         1 RIO       0.047700
     39 HO4         -3.0260    -3.7750    -0.3550 ho         1 RIO       0.444000
     40 H6          -0.5690    -3.9270    -1.3070 h1         1 RIO       0.069700
     41 HN1         -1.1020    -6.0060    -0.5360 hn         1 RIO       0.353300
     42 HN1A        -1.4070    -5.5140     0.9800 hn         1 RIO       0.353300
     43 H7           0.6180    -4.1440     1.4980 hc         1 RIO       0.052700
     44 H7A          1.2920    -4.8550     0.0380 hc         1 RIO       0.052700
     45 H8           1.5510    -2.6190    -0.9770 h1         1 RIO       0.026700
     46 HN2          3.1840    -3.6400     0.5890 hn         1 RIO       0.362300
     47 HN2A         3.3720    -2.0500     0.4070 hn         1 RIO       0.362300
     48 H9           0.5260    -1.5880     1.6950 h1         1 RIO       0.057700
     49 H10          2.0590    -0.0730     2.0890 h2         1 RIO       0.078700
     50 H11          2.9370     0.2410    -1.3980 h1         1 RIO       0.060700
     51 H12          5.2750     0.8940    -2.0030 h1         1 RIO       0.038200
     52 H12A         5.7140     0.8030    -0.3040 h1         1 RIO       0.038200
     53 HN3          4.6950    -1.4220    -1.8980 hn         1 RIO       0.337800
     54 HN3A         6.1830    -1.2630    -1.2920 hn         1 RIO       0.337800
     55 H13          4.0130     2.7480    -0.0360 h1         1 RIO       0.049700
     56 HO7          4.2840     3.0110    -2.2030 ho         1 RIO       0.406000
     57 H14          1.1680     2.0840    -0.8980 h1         1 RIO       0.072700
     58 HO8          1.7140     4.2920    -0.9220 ho         1 RIO       0.417000
     59 H15          2.3720     2.3270     1.8810 h1         1 RIO       0.075700
     60 HN4         -0.2710     1.3310     1.2710 hn         1 RIO       0.362800
     61 HN4A         0.3090     1.9230     2.6680 hn         1 RIO       0.362800
     62 H16         -3.6280     0.5000     1.2800 h1         1 RIO       0.058700
     63 HO9         -4.1270    -1.5190    -0.0860 ho         1 RIO       0.447000
     64 H17         -4.9940     2.1680     0.2270 h1         1 RIO       0.061700
     65 HO10        -5.2360     0.7050    -1.7340 ho         1 RIO       0.426000
@<TRIPOS>BOND
     1     1     2 1   
     2     1    32 1   
     3     2     3 1   
     4     2    33 1   
     5     2    34 1   
     6     3     4 1   
     7     3    30 1   
     8     3    35 1   
     9     4     5 1   
    10     5     6 1   
    11     5    28 1   
    12     5    36 1   
    13     6     7 1   
    14     7     8 1   
    15     7    15 1   
    16     7    37 1   
    17     8     9 1   
    18     8    10 1   
    19     8    38 1   
    20     9    39 1   
    21    10    11 1   
    22    10    12 1   
    23    10    40 1   
    24    11    41 1   
    25    11    42 1   
    26    12    13 1   
    27    12    43 1   
    28    12    44 1   
    29    13    14 1   
    30    13    15 1   
    31    13    45 1   
    32    14    46 1   
    33    14    47 1   
    34    15    16 1   
    35    15    48 1   
    36    16    17 1   
    37    17    18 1   
    38    17    26 1   
    39    17    49 1   
    40    18    19 1   
    41    19    20 1   
    42    19    22 1   
    43    19    50 1   
    44    20    21 1   
    45    20    51 1   
    46    20    52 1   
    47    21    53 1   
    48    21    54 1   
    49    22    23 1   
    50    22    24 1   
    51    22    55 1   
    52    23    56 1   
    53    24    25 1   
    54    24    26 1   
    55    24    57 1   
    56    25    58 1   
    57    26    27 1   
    58    26    59 1   
    59    27    60 1   
    60    27    61 1   
    61    28    29 1   
    62    28    30 1   
    63    28    62 1   
    64    29    63 1   
    65    30    31 1   
    66    30    64 1   
    67    31    65 1   
@<TRIPOS>SUBSTRUCTURE
     1 RIO         1 TEMP              0 ****  ****    0 ROOT
