@<TRIPOS>MOLECULE
RIO
   65    67     1     0     0
SMALL
No Charge or Current Charge


@<TRIPOS>ATOM
      1 O1          -1.5980     3.6010     1.4170 oh         1 RIO      -0.740000
      2 C1          -2.7440     2.7480     1.2510 c3         1 RIO       0.161600
      3 C2          -3.1020     2.5520    -0.2570 c5         1 RIO       0.122300
      4 O2          -2.0530     1.8300    -0.9530 os         1 RIO      -0.458000
      5 C3          -2.3040     0.4110    -0.8540 c5         1 RIO       0.362300
      6 O3          -1.3740    -0.1280     0.1070 os         1 RIO      -0.475000
      7 C4          -0.8120    -1.4470    -0.1450 c6         1 RIO       0.182300
      8 C5          -1.6990    -2.6180     0.3970 c6         1 RIO       0.154300
      9 O4          -2.9860    -2.7730    -0.2060 oh         1 RIO      -0.745000
     10 C6          -1.0040    -3.9800     0.1610 c6         1 RIO       0.118500
     11 N1          -1.9460    -5.0730     0.5250 n8         1 RIO      -1.015200
     12 C7           0.3370    -4.0520     0.9180 c6         1 RIO      -0.115400
     13 C8           1.2720    -2.9220     0.4130 c6         1 RIO       0.149500
     14 N2           2.5740    -2.9900     1.1200 n8         1 RIO      -1.012200
     15 C9           0.5970    -1.5050     0.5240 c6         1 RIO       0.189300
     16 O5           1.4490    -0.4850    -0.0630 os         1 RIO      -0.489000
     17 C10          2.3030     0.2330     0.8530 c6         1 RIO       0.359300
     18 O6           3.6520     0.2150     0.3470 os         1 RIO      -0.446000
     19 C11          3.8470     0.9220    -0.9060 c6         1 RIO       0.140300
     20 C12          5.3410     0.7220    -1.3430 c3         1 RIO       0.152800
     21 N3           5.7660    -0.6890    -1.5560 n8         1 RIO      -0.993200
     22 C13          3.4670     2.4270    -0.7230 c6         1 RIO       0.101300
     23 O7           3.6220     3.1850    -1.9450 oh         1 RIO      -0.719000
     24 C14          1.9920     2.5290    -0.2270 c6         1 RIO       0.183300
     25 O8           1.6590     3.9180    -0.0450 oh         1 RIO      -0.642000
     26 C15          1.7800     1.7000     1.0830 c6         1 RIO       0.147500
     27 N4           0.3440     1.7360     1.5440 n8         1 RIO      -1.000200
     28 C16         -3.7630     0.2540    -0.2740 c5         1 RIO       0.096300
     29 O9          -4.5400    -0.7800    -0.9060 oh         1 RIO      -0.732000
     30 C17         -4.3680     1.6690    -0.5020 c5         1 RIO       0.145300
     31 O10         -4.8860     1.7620    -1.8350 oh         1 RIO      -0.717000
     32 HO1         -0.7930     2.9930     1.3780 ho         1 RIO       0.558000
     33 H1          -2.5660     1.7760     1.7290 h1         1 RIO       0.029200
     34 H1A         -3.6130     3.1980     1.7500 h1         1 RIO       0.029200
     35 H2          -3.2220     3.5450    -0.7100 h1         1 RIO       0.098700
     36 H3          -2.1860    -0.0580    -1.8400 h2         1 RIO       0.065700
     37 H4          -0.6720    -1.5750    -1.2280 h1         1 RIO       0.063700
     38 H5          -1.8220    -2.4760     1.4810 h1         1 RIO       0.047700
     39 HO4         -3.0660    -3.7700    -0.1160 ho         1 RIO       0.543000
     40 H6          -0.8020    -4.0780    -0.9190 h1         1 RIO       0.069700
     41 HN1         -1.5600    -5.9690     0.1940 hn         1 RIO       0.408500
     42 HN1A        -1.9400    -5.1940     1.5470 hn         1 RIO       0.408500
     43 H7           0.1710    -3.9540     2.0000 hc         1 RIO       0.052700
     44 H7A          0.8090    -5.0310     0.7520 hc         1 RIO       0.052700
     45 H8           1.4870    -3.1040    -0.6510 h1         1 RIO       0.026700
     46 HN2          3.0590    -3.8500     0.8390 hn         1 RIO       0.417500
     47 HN2A         3.1750    -2.2470     0.7380 hn         1 RIO       0.417500
     48 H9           0.4480    -1.2820     1.5910 h1         1 RIO       0.057700
     49 H10          2.3090    -0.2790     1.8280 h2         1 RIO       0.078700
     50 H11          3.2010     0.4740    -1.6760 h1         1 RIO       0.060700
     51 H12          5.5040     1.2640    -2.2850 h1         1 RIO       0.038200
     52 H12A         5.9940     1.1700    -0.5810 h1         1 RIO       0.038200
     53 HN3          5.2050    -1.0990    -2.3120 hn         1 RIO       0.393000
     54 HN3A         6.7220    -0.7000    -1.9300 hn         1 RIO       0.393000
     55 H13          4.1180     2.8470     0.0600 h1         1 RIO       0.049700
     56 HO7          4.5750     3.4270    -2.0300 ho         1 RIO       0.505000
     57 H14          1.3460     2.0950    -1.0060 h1         1 RIO       0.072700
     58 HO8          2.0700     4.3670    -0.8170 ho         1 RIO       0.456000
     59 H15          2.3910     2.1570     1.8760 h1         1 RIO       0.075700
     60 HN4         -0.1810     1.0950     0.9190 hn         1 RIO       0.418000
     61 HN4A         0.2850     1.2640     2.4560 hn         1 RIO       0.418000
     62 H16         -3.7060     0.0510     0.8050 h1         1 RIO       0.058700
     63 HO9         -4.0390    -1.6280    -0.6900 ho         1 RIO       0.546000
     64 H17         -5.1580     1.8870     0.2300 h1         1 RIO       0.061700
     65 HO10        -5.0890     0.8170    -2.0520 ho         1 RIO       0.525000
@<TRIPOS>BOND
     1     1     2 1   
     2     1    32 1   
     3     2     3 1   
     4     2    33 1   
     5     2    34 1   
     6     3     4 1   
     7     3    30 1   
     8     3    35 1   
     9     4     5 1   
    10     5     6 1   
    11     5    28 1   
    12     5    36 1   
    13     6     7 1   
    14     7     8 1   
    15     7    15 1   
    16     7    37 1   
    17     8     9 1   
    18     8    10 1   
    19     8    38 1   
    20     9    39 1   
    21    10    11 1   
    22    10    12 1   
    23    10    40 1   
    24    11    41 1   
    25    11    42 1   
    26    12    13 1   
    27    12    43 1   
    28    12    44 1   
    29    13    14 1   
    30    13    15 1   
    31    13    45 1   
    32    14    46 1   
    33    14    47 1   
    34    15    16 1   
    35    15    48 1   
    36    16    17 1   
    37    17    18 1   
    38    17    26 1   
    39    17    49 1   
    40    18    19 1   
    41    19    20 1   
    42    19    22 1   
    43    19    50 1   
    44    20    21 1   
    45    20    51 1   
    46    20    52 1   
    47    21    53 1   
    48    21    54 1   
    49    22    23 1   
    50    22    24 1   
    51    22    55 1   
    52    23    56 1   
    53    24    25 1   
    54    24    26 1   
    55    24    57 1   
    56    25    58 1   
    57    26    27 1   
    58    26    59 1   
    59    27    60 1   
    60    27    61 1   
    61    28    29 1   
    62    28    30 1   
    63    28    62 1   
    64    29    63 1   
    65    30    31 1   
    66    30    64 1   
    67    31    65 1   
@<TRIPOS>SUBSTRUCTURE
     1 RIO         1 TEMP              0 ****  ****    0 ROOT
