@<TRIPOS>MOLECULE
RIP
   20    20     1     0     0
SMALL
abcg2


@<TRIPOS>ATOM
      1 C1          49.7240    33.6500    43.6240 c6         1 RIP       0.399300
      2 C2          49.0540    33.1360    44.8980 c6         1 RIP       0.154300
      3 C3          48.7030    34.3060    45.8180 c6         1 RIP       0.138300
      4 C4          49.9550    35.1410    46.0690 c6         1 RIP       0.094300
      5 C5          50.5720    35.5510    44.7340 c6         1 RIP       0.139600
      6 O1          50.1370    32.5690    42.8740 oh         1 RIP      -0.688000
      7 O2          47.9250    32.3900    44.5290 oh         1 RIP      -0.685000
      8 O3          47.6880    35.0630    45.2030 oh         1 RIP      -0.709000
      9 O4          49.5700    36.2530    46.8420 oh         1 RIP      -0.725000
     10 O5          50.8650    34.4060    43.9660 os         1 RIP      -0.489000
     11 H1          49.0220    34.2890    43.0630 h2         1 RIP       0.049700
     12 H2          49.7920    32.5140    45.4270 h1         1 RIP       0.053700
     13 H3          48.3540    33.9000    46.7820 h1         1 RIP       0.043700
     14 H4          50.6790    34.5120    46.6070 h1         1 RIP       0.052700
     15 H51         49.8950    36.2320    44.2010 h1         1 RIP       0.055700
     16 H52         51.5160    36.0780    44.8920 h1         1 RIP       0.055700
     17 HO1         50.3490    32.8640    41.9820 ho         1 RIP       0.518000
     18 HO2         47.5290    32.0220    45.3260 ho         1 RIP       0.506000
     19 HO3         47.5510    35.8580    45.7300 ho         1 RIP       0.520000
     20 HO4         50.3440    36.7960    47.0200 ho         1 RIP       0.515000
@<TRIPOS>BOND
     1     1     2 1   
     2     1     6 1   
     3     1    10 1   
     4     1    11 1   
     5     2     3 1   
     6     2     7 1   
     7     2    12 1   
     8     3     4 1   
     9     3     8 1   
    10     3    13 1   
    11     4     5 1   
    12     4     9 1   
    13     4    14 1   
    14     5    10 1   
    15     5    15 1   
    16     5    16 1   
    17     6    17 1   
    18     7    18 1   
    19     8    19 1   
    20     9    20 1   
@<TRIPOS>SUBSTRUCTURE
     1 RIP         1 TEMP              0 ****  ****    0 ROOT
