@<TRIPOS>MOLECULE
RIP
   20    20     1     0     0
SMALL
No Charge or Current Charge


@<TRIPOS>ATOM
      1 C1          49.6060    33.6100    43.5500 c6         1 RIP       0.399300
      2 C2          49.0850    33.0010    44.9040 c6         1 RIP       0.154300
      3 C3          48.7880    34.1430    45.9220 c6         1 RIP       0.138300
      4 C4          49.9720    35.1530    46.0200 c6         1 RIP       0.094300
      5 C5          50.4460    35.5960    44.6020 c6         1 RIP       0.139600
      6 O1          50.0920    32.6190    42.6650 oh         1 RIP      -0.688000
      7 O2          47.8860    32.2100    44.7390 oh         1 RIP      -0.685000
      8 O3          47.5950    34.8560    45.5550 oh         1 RIP      -0.709000
      9 O4          49.5610    36.2920    46.8080 oh         1 RIP      -0.725000
     10 O5          50.7450    34.4410    43.7860 os         1 RIP      -0.489000
     11 H1          48.8100    34.1960    43.0630 h2         1 RIP       0.049700
     12 H2          49.8880    32.3740    45.3180 h1         1 RIP       0.053700
     13 H3          48.6530    33.6890    46.9150 h1         1 RIP       0.043700
     14 H4          50.8130    34.6390    46.5110 h1         1 RIP       0.052700
     15 H51         49.6720    36.2000    44.1060 h1         1 RIP       0.055700
     16 H52         51.3540    36.2110    44.6870 h1         1 RIP       0.055700
     17 HO1         50.9990    32.9410    42.4720 ho         1 RIP       0.518000
     18 HO2         47.1570    32.8650    44.8710 ho         1 RIP       0.506000
     19 HO3         47.7210    35.7350    45.9930 ho         1 RIP       0.520000
     20 HO4         50.3800    36.7610    47.1000 ho         1 RIP       0.515000
@<TRIPOS>BOND
     1     1     2 1   
     2     1     6 1   
     3     1    10 1   
     4     1    11 1   
     5     2     3 1   
     6     2     7 1   
     7     2    12 1   
     8     3     4 1   
     9     3     8 1   
    10     3    13 1   
    11     4     5 1   
    12     4     9 1   
    13     4    14 1   
    14     5    10 1   
    15     5    15 1   
    16     5    16 1   
    17     6    17 1   
    18     7    18 1   
    19     8    19 1   
    20     9    20 1   
@<TRIPOS>SUBSTRUCTURE
     1 RIP         1 TEMP              0 ****  ****    0 ROOT
