@<TRIPOS>MOLECULE
RIQ
   23    24     1     0     0
SMALL
No Charge or Current Charge


@<TRIPOS>ATOM
      1 C01         23.6510    67.4240    71.5350 c3         1 RIQ      -0.173100
      2 C02         24.9550    67.7970    72.2510 c          1 RIQ       0.611100
      3 C05         26.0000    65.7150    71.2610 c5         1 RIQ       0.103000
      4 C06         27.4480    65.0860    71.3720 c5         1 RIQ      -0.034100
      5 C07         28.1750    66.0660    72.2780 ca         1 RIQ      -0.131300
      6 C08         29.5130    65.9820    72.7070 ca         1 RIQ       0.160000
      7 C09         30.0230    66.9920    73.5550 ca         1 RIQ       0.095000
      8 C10         29.1960    68.0600    73.9580 ca         1 RIQ      -0.072000
      9 C11         27.8580    68.1310    73.5200 ca         1 RIQ      -0.111000
     10 C12         27.3710    67.1140    72.6760 ca         1 RIQ      -0.014000
     11 N04         26.0840    66.9450    72.1000 n          1 RIQ      -0.228400
     12 O03         24.9900    68.8140    72.9320 o          1 RIQ      -0.584100
     13 Cl14        30.5240    64.6310    72.1850 cl         1 RIQ      -0.180000
     14 H1          22.8510    68.1490    71.7210 hc         1 RIQ       0.065700
     15 H2          23.8440    67.3150    70.4620 hc         1 RIQ       0.065700
     16 H3          23.3480    66.4150    71.8320 hc         1 RIQ       0.065700
     17 H4          25.7560    65.9580    70.2190 h1         1 RIQ       0.053200
     18 H5          25.2410    65.0210    71.6450 h1         1 RIQ       0.053200
     19 H6          27.4130    64.0780    71.8010 hc         1 RIQ       0.070700
     20 H7          27.9240    65.0060    70.3880 hc         1 RIQ       0.070700
     21 H8          29.5930    68.8340    74.6100 ha         1 RIQ       0.135000
     22 H9          27.2370    68.9610    73.8410 ha         1 RIQ       0.159000
     23 Cl13        31.6920    66.9420    74.1260 cl         1 RIQ      -0.181000
@<TRIPOS>BOND
     1     1     2 1   
     2     1    14 1   
     3     1    15 1   
     4     1    16 1   
     5     2    11 1   
     6     2    12 2   
     7     3     4 1   
     8     3    11 1   
     9     3    17 1   
    10     3    18 1   
    11     4     5 1   
    12     4    19 1   
    13     4    20 1   
    14     5     6 ar  
    15     5    10 ar  
    16     6     7 ar  
    17     6    13 1   
    18     7     8 ar  
    19     7    23 1   
    20     8     9 ar  
    21     8    21 1   
    22     9    10 ar  
    23     9    22 1   
    24    10    11 1   
@<TRIPOS>SUBSTRUCTURE
     1 RIQ         1 TEMP              0 ****  ****    0 ROOT
