@<TRIPOS>MOLECULE
RIQ
   23    24     1     0     0
SMALL
abcg2


@<TRIPOS>ATOM
      1 C01         23.7440    67.4060    71.5190 c3         1 RIQ      -0.173100
      2 C02         25.0160    67.8100    72.2220 c          1 RIQ       0.611100
      3 C05         26.0000    65.6740    71.3380 c5         1 RIQ       0.103000
      4 C06         27.4400    65.1250    71.3400 c5         1 RIQ      -0.034100
      5 C07         28.1710    66.0540    72.2630 ca         1 RIQ      -0.131300
      6 C08         29.4790    65.9890    72.7040 ca         1 RIQ       0.160000
      7 C09         29.9680    66.9880    73.5550 ca         1 RIQ       0.095000
      8 C10         29.1380    68.0300    73.9440 ca         1 RIQ      -0.072000
      9 C11         27.8200    68.1080    73.5050 ca         1 RIQ      -0.111000
     10 C12         27.3450    67.1090    72.6620 ca         1 RIQ      -0.014000
     11 N04         26.0700    66.9520    72.0900 n          1 RIQ      -0.228400
     12 O03         25.0960    68.8520    72.8700 o          1 RIQ      -0.584100
     13 CL14        30.4810    64.6670    72.1830 cl         1 RIQ      -0.180000
     14 H1          22.9770    68.1400    71.7460 hc         1 RIQ       0.065700
     15 H2          23.8970    67.3640    70.4390 hc         1 RIQ       0.065700
     16 H3          23.4110    66.4170    71.8410 hc         1 RIQ       0.065700
     17 H4          25.6340    65.8530    70.3310 h1         1 RIQ       0.053200
     18 H5          25.3130    64.9950    71.8430 h1         1 RIQ       0.053200
     19 H6          27.4790    64.0930    71.6870 hc         1 RIQ       0.070700
     20 H7          27.8810    65.1480    70.3410 hc         1 RIQ       0.070700
     21 H8          29.5300    68.7940    74.6010 ha         1 RIQ       0.135000
     22 H9          27.1870    68.9220    73.8150 ha         1 RIQ       0.159000
     23 CL13        31.6090    66.9450    74.1370 cl         1 RIQ      -0.181000
@<TRIPOS>BOND
     1     1     2 1   
     2     1    14 1   
     3     1    15 1   
     4     1    16 1   
     5     2    11 1   
     6     2    12 2   
     7     3     4 1   
     8     3    11 1   
     9     3    17 1   
    10     3    18 1   
    11     4     5 1   
    12     4    19 1   
    13     4    20 1   
    14     5     6 ar  
    15     5    10 ar  
    16     6     7 ar  
    17     6    13 1   
    18     7     8 ar  
    19     7    23 1   
    20     8     9 ar  
    21     8    21 1   
    22     9    10 ar  
    23     9    22 1   
    24    10    11 1   
@<TRIPOS>SUBSTRUCTURE
     1 RIQ         1 TEMP              0 ****  ****    0 ROOT
