@<TRIPOS>MOLECULE
RIS
   24    24     1     0     0
SMALL
bcc


@<TRIPOS>ATOM
      1 O12         -1.8370    -3.0490    -0.2790 o          1 RIS      -0.955167
      2 P9          -1.2470    -2.3900     0.9780 p5         1 RIS       1.186200
      3 O11         -1.8850    -1.0100     1.2600 o          1 RIS      -0.955167
      4 O10         -1.2610    -3.2800     2.2280 o          1 RIS      -0.955167
      5 C8           0.5380    -2.0330     0.5530 c3         1 RIS      -0.128600
      6 O13          1.2110    -1.5830     1.7320 oh         1 RIS      -0.653800
      7 P14          1.5450    -3.5100    -0.0410 p5         1 RIS       1.186200
      8 O16          1.5360    -3.5490    -1.5780 o          1 RIS      -0.955167
      9 O15          1.0170    -4.8010     0.5880 o          1 RIS      -0.955167
     10 O17          2.9290    -3.1030     0.5570 o          1 RIS      -0.955167
     11 C7           0.5730    -0.9010    -0.5020 c3         1 RIS      -0.018100
     12 C2           1.9010    -0.2190    -0.6100 ca         1 RIS      -0.054600
     13 C1           2.2090     0.8840     0.1770 ca         1 RIS      -0.133000
     14 C6           3.4580     1.4840     0.0760 ca         1 RIS      -0.291300
     15 C5           4.3710     0.9560    -0.8190 ca         1 RIS       0.284200
     16 N4           4.1030    -0.1010    -1.5820 nb         1 RIS      -0.731000
     17 C3           2.9080    -0.6680    -1.4640 ca         1 RIS       0.416200
     18 H13          2.1150    -1.9420     1.5640 ho         1 RIS       0.396000
     19 HC71         0.2720    -1.3090    -1.4670 hc         1 RIS       0.041700
     20 HC72        -0.1710    -0.1510    -0.2180 hc         1 RIS       0.041700
     21 HC1          1.4680     1.2850     0.8580 ha         1 RIS       0.128000
     22 HC6          3.7170     2.3460     0.6770 ha         1 RIS       0.057000
     23 HC5          5.3550     1.4000    -0.9300 h4         1 RIS      -0.073900
     24 HC3          2.7190    -1.5470    -2.0700 h4         1 RIS       0.078100
@<TRIPOS>BOND
     1     1     2 1   
     2     2     3 1   
     3     2     4 1   
     4     2     5 1   
     5     5     6 1   
     6     5     7 1   
     7     5    11 1   
     8     6    18 1   
     9     7     8 1   
    10     7     9 1   
    11     7    10 1   
    12    11    12 1   
    13    11    19 1   
    14    11    20 1   
    15    12    13 ar  
    16    12    17 ar  
    17    13    14 ar  
    18    13    21 1   
    19    14    15 ar  
    20    14    22 1   
    21    15    16 ar  
    22    15    23 1   
    23    16    17 ar  
    24    17    24 1   
@<TRIPOS>SUBSTRUCTURE
     1 RIS         1 TEMP              0 ****  ****    0 ROOT
