@<TRIPOS>MOLECULE
RIS
   24    24     1     0     0
SMALL
No Charge or Current Charge


@<TRIPOS>ATOM
      1 O12         -1.7320    -3.2370    -0.5030 o          1 RIS      -0.955167
      2 P9          -1.2850    -2.5760     0.7590 p5         1 RIS       1.186200
      3 O11         -2.1650    -1.3860     0.9730 o          1 RIS      -0.955167
      4 O10         -1.5370    -3.4860     1.9180 o          1 RIS      -0.955167
      5 C8           0.5140    -1.9830     0.7020 c3         1 RIS      -0.128600
      6 O13          1.0330    -1.4590     1.9860 oh         1 RIS      -0.653800
      7 P14          1.5020    -3.4840     0.1180 p5         1 RIS       1.186200
      8 O16          1.4220    -3.6670    -1.3620 o          1 RIS      -0.955167
      9 O15          1.1480    -4.7620     0.8030 o          1 RIS      -0.955167
     10 O17          2.9320    -3.1940     0.4410 o          1 RIS      -0.955167
     11 C7           0.6000    -0.8280    -0.3510 c3         1 RIS      -0.018100
     12 C2           1.9770    -0.1820    -0.5370 ca         1 RIS      -0.054600
     13 C1           2.3870     0.8860     0.2850 ca         1 RIS      -0.133000
     14 C6           3.6350     1.4800     0.0340 ca         1 RIS      -0.291300
     15 C5           4.4270     1.0080    -1.0250 ca         1 RIS       0.284200
     16 N4           4.0470    -0.0030    -1.8300 nb         1 RIS      -0.731000
     17 C3           2.8420    -0.5900    -1.5790 ca         1 RIS       0.416200
     18 H13          1.9850    -1.7020     1.9960 ho         1 RIS       0.396000
     19 HC71         0.2360    -1.1970    -1.3170 hc         1 RIS       0.041700
     20 HC72        -0.1080    -0.0410    -0.0650 hc         1 RIS       0.041700
     21 HC1          1.7510     1.2450     1.0920 ha         1 RIS       0.128000
     22 HC6          3.9860     2.3050     0.6480 ha         1 RIS       0.057000
     23 HC5          5.3940     1.4560    -1.2430 h4         1 RIS      -0.073900
     24 HC3          2.5500    -1.3930    -2.2550 h4         1 RIS       0.078100
@<TRIPOS>BOND
     1     1     2 1   
     2     2     3 1   
     3     2     4 1   
     4     2     5 1   
     5     5     6 1   
     6     5     7 1   
     7     5    11 1   
     8     6    18 1   
     9     7     8 1   
    10     7     9 1   
    11     7    10 1   
    12    11    12 1   
    13    11    19 1   
    14    11    20 1   
    15    12    13 ar  
    16    12    17 ar  
    17    13    14 ar  
    18    13    21 1   
    19    14    15 ar  
    20    14    22 1   
    21    15    16 ar  
    22    15    23 1   
    23    16    17 ar  
    24    17    24 1   
@<TRIPOS>SUBSTRUCTURE
     1 RIS         1 TEMP              0 ****  ****    0 ROOT
