@<TRIPOS>MOLECULE
RIT
   98   101     1     0     0
SMALL
No Charge or Current Charge


@<TRIPOS>ATOM
      1 C1           7.7540     2.9370     1.9530 cc         1 RIT       0.289900
      2 C2           6.9680     3.1950     0.8590 cd         1 RIT      -0.252300
      3 S3           6.2060     4.7690     0.9850 ss         1 RIT      -0.008400
      4 C4           7.0320     4.9520     2.5310 cd         1 RIT       0.414300
      5 N5           7.7970     3.9290     2.9020 nc         1 RIT      -0.632000
      6 C6           6.7330     2.3010    -0.3250 c3         1 RIT       0.261900
      7 O7           5.8670     1.2400     0.0960 os         1 RIT      -0.464100
      8 C10          5.5360     0.3010    -0.8300 c          1 RIT       0.639100
      9 O24          5.8920     0.2930    -1.9980 o          1 RIT      -0.537000
     10 N11          4.7180    -0.6210    -0.2450 ns         1 RIT      -0.491900
     11 C12          4.1730    -1.8160    -0.9060 c3         1 RIT       0.091700
     12 C13          2.6350    -1.9440    -0.6800 c3         1 RIT       0.169300
     13 C14          1.8380    -0.7730    -1.3140 c3         1 RIT      -0.119400
     14 C15          0.2960    -0.9290    -1.2650 c3         1 RIT       0.103700
     15 C26          4.9540    -3.0840    -0.4730 c3         1 RIT      -0.049100
     16 C28          6.4480    -2.9930    -0.7700 ca         1 RIT      -0.088300
     17 C31          7.3590    -2.6590     0.2520 ca         1 RIT      -0.102500
     18 C32          8.7340    -2.5620    -0.0280 ca         1 RIT      -0.107000
     19 C33          9.2050    -2.7990    -1.3300 ca         1 RIT      -0.108000
     20 C34          8.3010    -3.1330    -2.3530 ca         1 RIT      -0.107000
     21 C35          6.9260    -3.2280    -2.0740 ca         1 RIT      -0.102500
     22 O41          2.3490    -1.9980     0.7230 oh         1 RIT      -0.653000
     23 C44         -0.4260     0.0690    -2.2080 c3         1 RIT      -0.054100
     24 C45         -1.9470    -0.0010    -2.0900 ca         1 RIT      -0.088300
     25 C48         -2.6500     0.9580    -1.3320 ca         1 RIT      -0.106500
     26 C49         -4.0420     0.8550    -1.1710 ca         1 RIT      -0.106000
     27 C50         -4.7430    -0.2020    -1.7760 ca         1 RIT      -0.115000
     28 C51         -4.0510    -1.1550    -2.5400 ca         1 RIT      -0.106000
     29 C52         -2.6570    -1.0560    -2.6960 ca         1 RIT      -0.106500
     30 N58         -0.2290    -0.7710     0.1000 ns         1 RIT      -0.491900
     31 N20         -3.4670    -1.3450     1.6760 ns         1 RIT      -0.514900
     32 C19         -2.0640    -0.8920     1.7700 c3         1 RIT       0.049700
     33 C18         -1.2510    -1.5480     0.6150 c          1 RIT       0.592100
     34 O61         -1.5240    -2.6480     0.1500 o          1 RIT      -0.596100
     35 C62         -1.4780    -1.1610     3.1900 c3         1 RIT      -0.069700
     36 C64         -1.4060    -2.6670     3.5490 c3         1 RIT      -0.088100
     37 C68         -0.1120    -0.4700     3.4090 c3         1 RIT      -0.088100
     38 N74         -5.8110    -1.2010     1.7720 n          1 RIT      -0.420800
     39 C75         -7.0750    -0.4650     2.0390 c3         1 RIT       0.086700
     40 O76         -4.4530     0.4720     2.6050 o          1 RIT      -0.647100
     41 C77         -7.6280     0.1930     0.7950 cc         1 RIT       0.259300
     42 C80         -8.4400    -0.4210    -0.1280 cd         1 RIT      -0.263000
     43 S81         -8.8470     0.6670    -1.4420 ss         1 RIT      -0.049400
     44 C82         -7.8670     1.8770    -0.6200 cd         1 RIT       0.446700
     45 N83         -7.3070     1.5010     0.5210 nc         1 RIT      -0.634000
     46 C85         -7.6590     3.2680    -1.1810 c3         1 RIT      -0.101000
     47 C86         -6.9690     3.2340    -2.5660 c3         1 RIT      -0.089600
     48 C90         -8.9800     4.0710    -1.2250 c3         1 RIT      -0.089600
     49 C95         -5.9230    -2.5250     1.1150 c3         1 RIT       0.084300
     50 H1           8.3310     2.0380     2.1250 h4         1 RIT       0.044100
     51 H4           6.8940     5.8600     3.1050 h5         1 RIT       0.054100
     52 H61          6.2790     2.8790    -1.1410 h1         1 RIT       0.065200
     53 H62A         7.6950     1.9050    -0.6780 h1         1 RIT       0.065200
     54 H11          4.4910    -0.4640     0.7270 hn         1 RIT       0.323500
     55 H12          4.3250    -1.7050    -1.9890 h1         1 RIT       0.086700
     56 H13          2.3030    -2.8730    -1.1650 h1         1 RIT       0.073700
     57 H141         2.1240     0.1760    -0.8440 hc         1 RIT       0.059200
     58 H142         2.1400    -0.6970    -2.3660 hc         1 RIT       0.059200
     59 H15          0.0540    -1.9390    -1.6240 h1         1 RIT       0.094700
     60 H261         4.7930    -3.2590     0.5970 hc         1 RIT       0.062200
     61 H262         4.5300    -3.9550    -0.9880 hc         1 RIT       0.062200
     62 H31          7.0030    -2.4680     1.2610 ha         1 RIT       0.109500
     63 H32          9.4320    -2.3020     0.7650 ha         1 RIT       0.113000
     64 H33         10.2690    -2.7240    -1.5460 ha         1 RIT       0.112000
     65 H34          8.6650    -3.3150    -3.3620 ha         1 RIT       0.113000
     66 H35          6.2330    -3.4830    -2.8720 ha         1 RIT       0.109500
     67 HO4          1.3950    -1.7820     0.8070 ho         1 RIT       0.450000
     68 H441        -0.0790     1.0860    -1.9850 hc         1 RIT       0.052700
     69 H442        -0.1230    -0.1330    -3.2430 hc         1 RIT       0.052700
     70 H48         -2.1150     1.7730    -0.8500 ha         1 RIT       0.108000
     71 H49         -4.5760     1.5890    -0.5720 ha         1 RIT       0.125000
     72 H50         -5.8200    -0.2840    -1.6490 ha         1 RIT       0.111000
     73 H51         -4.5930    -1.9760    -3.0060 ha         1 RIT       0.125000
     74 H52         -2.1270    -1.8070    -3.2770 ha         1 RIT       0.108000
     75 H58         -0.0910     0.1300     0.5440 hn         1 RIT       0.303500
     76 H20         -3.6490    -2.2210     1.2050 hn         1 RIT       0.338500
     77 H19         -2.0520     0.1910     1.5880 h1         1 RIT       0.074700
     78 H62         -2.1700    -0.7000     3.9070 hc         1 RIT       0.071700
     79 H641        -0.7050    -3.1970     2.8930 hc         1 RIT       0.035700
     80 H642        -1.0670    -2.7990     4.5830 hc         1 RIT       0.035700
     81 H643        -2.3900    -3.1420     3.4580 hc         1 RIT       0.035700
     82 H681         0.1970    -0.5560     4.4580 hc         1 RIT       0.035700
     83 H682         0.6690    -0.9260     2.7910 hc         1 RIT       0.035700
     84 H683        -0.1720     0.5970     3.1630 hc         1 RIT       0.035700
     85 H751        -7.8230    -1.1650     2.4310 h1         1 RIT       0.074700
     86 H752        -6.9170     0.2980     2.8120 h1         1 RIT       0.074700
     87 H80         -8.8110    -1.4380    -0.1150 h4         1 RIT       0.159000
     88 H85         -6.9830     3.8080    -0.5060 hc         1 RIT       0.079700
     89 H861        -7.6040     2.7420    -3.3120 hc         1 RIT       0.041700
     90 H862        -6.7550     4.2510    -2.9170 hc         1 RIT       0.041700
     91 H863        -6.0190     2.6880    -2.5110 hc         1 RIT       0.041700
     92 H901        -9.4370     4.1160    -0.2280 hc         1 RIT       0.041700
     93 H902        -8.7990     5.0990    -1.5610 hc         1 RIT       0.041700
     94 H903        -9.7000     3.6090    -1.9110 hc         1 RIT       0.041700
     95 H951        -5.4020    -3.2840     1.7140 h1         1 RIT       0.039033
     96 H952        -6.9760    -2.8190     1.0210 h1         1 RIT       0.039033
     97 H953        -5.4800    -2.4820     0.1120 h1         1 RIT       0.039033
     98 C21         -4.5630    -0.6140     2.0580 c          1 RIT       0.663100
@<TRIPOS>BOND
     1     1     2 2   
     2     1     5 1   
     3     1    50 1   
     4     2     3 1   
     5     2     6 1   
     6     3     4 1   
     7     4     5 2   
     8     4    51 1   
     9     6     7 1   
    10     6    52 1   
    11     6    53 1   
    12     7     8 1   
    13     8     9 2   
    14     8    10 1   
    15    10    11 1   
    16    10    54 1   
    17    11    12 1   
    18    11    15 1   
    19    11    55 1   
    20    12    13 1   
    21    12    22 1   
    22    12    56 1   
    23    13    14 1   
    24    13    57 1   
    25    13    58 1   
    26    14    23 1   
    27    14    30 1   
    28    14    59 1   
    29    15    16 1   
    30    15    60 1   
    31    15    61 1   
    32    16    17 ar  
    33    16    21 ar  
    34    17    18 ar  
    35    17    62 1   
    36    18    19 ar  
    37    18    63 1   
    38    19    20 ar  
    39    19    64 1   
    40    20    21 ar  
    41    20    65 1   
    42    21    66 1   
    43    22    67 1   
    44    23    24 1   
    45    23    68 1   
    46    23    69 1   
    47    24    25 ar  
    48    24    29 ar  
    49    25    26 ar  
    50    25    70 1   
    51    26    27 ar  
    52    26    71 1   
    53    27    28 ar  
    54    27    72 1   
    55    28    29 ar  
    56    28    73 1   
    57    29    74 1   
    58    30    33 1   
    59    30    75 1   
    60    31    32 1   
    61    31    76 1   
    62    31    98 1   
    63    32    33 1   
    64    32    35 1   
    65    32    77 1   
    66    33    34 2   
    67    35    36 1   
    68    35    37 1   
    69    35    78 1   
    70    36    79 1   
    71    36    80 1   
    72    36    81 1   
    73    37    82 1   
    74    37    83 1   
    75    37    84 1   
    76    38    39 1   
    77    38    49 1   
    78    38    98 1   
    79    39    41 1   
    80    39    85 1   
    81    39    86 1   
    82    40    98 2   
    83    41    42 2   
    84    41    45 1   
    85    42    43 1   
    86    42    87 1   
    87    43    44 1   
    88    44    45 2   
    89    44    46 1   
    90    46    47 1   
    91    46    48 1   
    92    46    88 1   
    93    47    89 1   
    94    47    90 1   
    95    47    91 1   
    96    48    92 1   
    97    48    93 1   
    98    48    94 1   
    99    49    95 1   
   100    49    96 1   
   101    49    97 1   
@<TRIPOS>SUBSTRUCTURE
     1 RIT         1 TEMP              0 ****  ****    0 ROOT
