@<TRIPOS>MOLECULE
RIT
   98   101     1     0     0
SMALL
abcg2


@<TRIPOS>ATOM
      1 C1           7.7470     2.8720     2.3820 cc         1 RIT       0.289900
      2 C2           6.5390     2.6210     1.8120 cd         1 RIT      -0.252300
      3 S3           5.2950     3.0630     2.9150 ss         1 RIT      -0.008400
      4 C4           6.4970     3.5440     4.0440 cd         1 RIT       0.414300
      5 N5           7.7160     3.3960     3.6410 nc         1 RIT      -0.632000
      6 C6           6.2560     2.0820     0.4580 c3         1 RIT       0.261900
      7 O7           5.5030     0.8840     0.6280 os         1 RIT      -0.464100
      8 C10          5.1000     0.2620    -0.4910 c          1 RIT       0.639100
      9 O24          5.3630     0.6550    -1.6070 o          1 RIT      -0.537000
     10 N11          4.3590    -0.8200    -0.1850 ns         1 RIT      -0.491900
     11 C12          3.9910    -1.8270    -1.1560 c3         1 RIT       0.091700
     12 C13          2.4780    -2.0750    -1.1260 c3         1 RIT       0.169300
     13 C14          1.7130    -0.8680    -1.6610 c3         1 RIT      -0.119400
     14 C15          0.1960    -0.9940    -1.5520 c3         1 RIT       0.103700
     15 C26          4.7900    -3.1160    -0.9170 c3         1 RIT      -0.049100
     16 C28          6.2690    -2.8710    -1.0040 ca         1 RIT      -0.088300
     17 C31          7.0220    -2.6140     0.1390 ca         1 RIT      -0.102500
     18 C32          8.3770    -2.3250     0.0510 ca         1 RIT      -0.107000
     19 C33          9.0030    -2.2930    -1.1880 ca         1 RIT      -0.108000
     20 C34          8.2640    -2.5540    -2.3350 ca         1 RIT      -0.107000
     21 C35          6.9090    -2.8380    -2.2410 ca         1 RIT      -0.102500
     22 O41          2.0580    -2.4870     0.1590 oh         1 RIT      -0.653000
     23 C44         -0.5240    -0.1190    -2.5970 c3         1 RIT      -0.054100
     24 C45         -2.0150    -0.1750    -2.4230 ca         1 RIT      -0.088300
     25 C48         -2.6720     0.7470    -1.6110 ca         1 RIT      -0.106500
     26 C49         -4.0250     0.6160    -1.3300 ca         1 RIT      -0.106000
     27 C50         -4.7500    -0.4320    -1.8810 ca         1 RIT      -0.115000
     28 C51         -4.1140    -1.3410    -2.7180 ca         1 RIT      -0.106000
     29 C52         -2.7570    -1.2150    -2.9790 ca         1 RIT      -0.106500
     30 N58         -0.2550    -0.6260    -0.2190 ns         1 RIT      -0.491900
     31 N20         -3.2220    -0.9760     1.7260 ns         1 RIT      -0.514900
     32 C19         -1.8630    -0.5170     1.6020 c3         1 RIT       0.049700
     33 C18         -1.2570    -1.2650     0.4160 c          1 RIT       0.592100
     34 O61         -1.6590    -2.3720     0.0970 o          1 RIT      -0.596100
     35 C62         -1.0660    -0.7130     2.9110 c3         1 RIT      -0.069700
     36 C64         -0.8460    -2.1800     3.2560 c3         1 RIT      -0.088100
     37 C68          0.2450     0.0640     2.9180 c3         1 RIT      -0.088100
     38 N74         -5.4670    -0.7150     2.1590 n          1 RIT      -0.420800
     39 C75         -6.6190     0.1060     2.4700 c3         1 RIT       0.086700
     40 O76         -3.9940     0.9730     2.5770 o          1 RIT      -0.647100
     41 C77         -7.3880     0.5000     1.2450 cc         1 RIT       0.259300
     42 C80         -8.5890    -0.0170     0.8770 cd         1 RIT      -0.263000
     43 S81         -9.0910     0.6690    -0.6110 ss         1 RIT      -0.049400
     44 C82         -7.6420     1.6240    -0.6400 cd         1 RIT       0.446700
     45 N83         -6.8710     1.4250     0.3780 nc         1 RIT      -0.634000
     46 C85         -7.3850     2.6270    -1.7230 c3         1 RIT      -0.101000
     47 C86         -7.6820     2.0710    -3.1130 c3         1 RIT      -0.089600
     48 C90         -8.1790     3.9080    -1.4580 c3         1 RIT      -0.089600
     49 C95         -5.7240    -2.0400     1.6420 c3         1 RIT       0.084300
     50 H1           8.6970     2.6820     1.9000 h4         1 RIT       0.044100
     51 H4           6.2200     3.9330     5.0140 h5         1 RIT       0.054100
     52 H61          5.6960     2.8020    -0.1420 h1         1 RIT       0.065200
     53 H62A         7.2030     1.8850    -0.0520 h1         1 RIT       0.065200
     54 H11          4.3080    -1.0820     0.7890 hn         1 RIT       0.323500
     55 H12          4.2450    -1.4420    -2.1460 h1         1 RIT       0.086700
     56 H13          2.2750    -2.9210    -1.7920 h1         1 RIT       0.073700
     57 H141         2.0380     0.0510    -1.1600 hc         1 RIT       0.059200
     58 H142         1.9890    -0.7490    -2.7120 hc         1 RIT       0.059200
     59 H15         -0.0990    -2.0310    -1.7150 h1         1 RIT       0.094700
     60 H261         4.5300    -3.5260     0.0620 hc         1 RIT       0.062200
     61 H262         4.4840    -3.8540    -1.6630 hc         1 RIT       0.062200
     62 H31          6.5450    -2.6470     1.1120 ha         1 RIT       0.109500
     63 H32          8.9460    -2.1280     0.9510 ha         1 RIT       0.113000
     64 H33         10.0610    -2.0730    -1.2600 ha         1 RIT       0.112000
     65 H34          8.7450    -2.5360    -3.3050 ha         1 RIT       0.113000
     66 H35          6.3400    -3.0380    -3.1420 ha         1 RIT       0.109500
     67 HO4          1.8530    -1.7100     0.6860 ho         1 RIT       0.450000
     68 H441        -0.1680     0.9120    -2.5080 hc         1 RIT       0.052700
     69 H442        -0.2370    -0.4710    -3.5900 hc         1 RIT       0.052700
     70 H48         -2.1180     1.5730    -1.1810 ha         1 RIT       0.108000
     71 H49         -4.5200     1.3190    -0.6730 ha         1 RIT       0.125000
     72 H50         -5.8040    -0.5370    -1.6590 ha         1 RIT       0.111000
     73 H51         -4.6740    -2.1560    -3.1590 ha         1 RIT       0.125000
     74 H52         -2.2630    -1.9420    -3.6150 ha         1 RIT       0.108000
     75 H58         -0.0770     0.3300     0.0510 hn         1 RIT       0.303500
     76 H20         -3.4330    -1.8340     1.2420 hn         1 RIT       0.338500
     77 H19         -1.8700     0.5540     1.3770 h1         1 RIT       0.074700
     78 H62         -1.7020    -0.2710     3.6840 hc         1 RIT       0.071700
     79 H641        -0.1310    -2.6520     2.5790 hc         1 RIT       0.035700
     80 H642        -0.4450    -2.2750     4.2660 hc         1 RIT       0.035700
     81 H643        -1.7730    -2.7530     3.2170 hc         1 RIT       0.035700
     82 H681         0.6840     0.0590     3.9160 hc         1 RIT       0.035700
     83 H682         0.9900    -0.3660     2.2450 hc         1 RIT       0.035700
     84 H683         0.0980     1.1060     2.6270 hc         1 RIT       0.035700
     85 H751        -7.2760    -0.4460     3.1450 h1         1 RIT       0.074700
     86 H752        -6.2840     0.9950     3.0000 h1         1 RIT       0.074700
     87 H80         -9.1840    -0.7560     1.3910 h4         1 RIT       0.159000
     88 H85         -6.3200     2.8630    -1.6610 hc         1 RIT       0.079700
     89 H861        -8.7420     1.8350    -3.2350 hc         1 RIT       0.041700
     90 H862        -7.4280     2.8120    -3.8710 hc         1 RIT       0.041700
     91 H863        -7.1070     1.1690    -3.3200 hc         1 RIT       0.041700
     92 H901        -7.9550     4.3180    -0.4730 hc         1 RIT       0.041700
     93 H902        -7.9330     4.6650    -2.2030 hc         1 RIT       0.041700
     94 H903        -9.2530     3.7220    -1.5120 hc         1 RIT       0.041700
     95 H951        -5.0950    -2.7890     2.1270 h1         1 RIT       0.039033
     96 H952        -6.7560    -2.3110     1.8530 h1         1 RIT       0.039033
     97 H953        -5.5830    -2.1120     0.5600 h1         1 RIT       0.039033
     98 C21         -4.2160    -0.1630     2.1660 c          1 RIT       0.663100
@<TRIPOS>BOND
     1     1     2 2   
     2     1     5 1   
     3     1    50 1   
     4     2     3 1   
     5     2     6 1   
     6     3     4 1   
     7     4     5 2   
     8     4    51 1   
     9     6     7 1   
    10     6    52 1   
    11     6    53 1   
    12     7     8 1   
    13     8     9 2   
    14     8    10 1   
    15    10    11 1   
    16    10    54 1   
    17    11    12 1   
    18    11    15 1   
    19    11    55 1   
    20    12    13 1   
    21    12    22 1   
    22    12    56 1   
    23    13    14 1   
    24    13    57 1   
    25    13    58 1   
    26    14    23 1   
    27    14    30 1   
    28    14    59 1   
    29    15    16 1   
    30    15    60 1   
    31    15    61 1   
    32    16    17 ar  
    33    16    21 ar  
    34    17    18 ar  
    35    17    62 1   
    36    18    19 ar  
    37    18    63 1   
    38    19    20 ar  
    39    19    64 1   
    40    20    21 ar  
    41    20    65 1   
    42    21    66 1   
    43    22    67 1   
    44    23    24 1   
    45    23    68 1   
    46    23    69 1   
    47    24    25 ar  
    48    24    29 ar  
    49    25    26 ar  
    50    25    70 1   
    51    26    27 ar  
    52    26    71 1   
    53    27    28 ar  
    54    27    72 1   
    55    28    29 ar  
    56    28    73 1   
    57    29    74 1   
    58    30    33 1   
    59    30    75 1   
    60    31    32 1   
    61    31    76 1   
    62    31    98 1   
    63    32    33 1   
    64    32    35 1   
    65    32    77 1   
    66    33    34 2   
    67    35    36 1   
    68    35    37 1   
    69    35    78 1   
    70    36    79 1   
    71    36    80 1   
    72    36    81 1   
    73    37    82 1   
    74    37    83 1   
    75    37    84 1   
    76    38    39 1   
    77    38    49 1   
    78    38    98 1   
    79    39    41 1   
    80    39    85 1   
    81    39    86 1   
    82    40    98 2   
    83    41    42 2   
    84    41    45 1   
    85    42    43 1   
    86    42    87 1   
    87    43    44 1   
    88    44    45 2   
    89    44    46 1   
    90    46    47 1   
    91    46    48 1   
    92    46    88 1   
    93    47    89 1   
    94    47    90 1   
    95    47    91 1   
    96    48    92 1   
    97    48    93 1   
    98    48    94 1   
    99    49    95 1   
   100    49    96 1   
   101    49    97 1   
@<TRIPOS>SUBSTRUCTURE
     1 RIT         1 TEMP              0 ****  ****    0 ROOT
