@<TRIPOS>MOLECULE
RIU
   49    51     1     0     0
SMALL
abcg2


@<TRIPOS>ATOM
      1 N1         -16.7010     4.2220    26.7230 nb         1 RIU      -0.663000
      2 C4         -18.4620     8.7900    25.5030 ca         1 RIU       0.168100
      3 C5         -17.0650     8.7950    25.2380 ca         1 RIU      -0.126000
      4 C6         -16.3140     7.6840    25.4830 ca         1 RIU      -0.055000
      5 C7         -16.9140     6.5100    26.0060 ca         1 RIU      -0.126000
      6 C8         -16.1770     5.3350    26.2530 ca         1 RIU       0.369900
      7 C10        -18.8500     5.3070    26.7990 ca         1 RIU      -0.095000
      8 C13        -22.5120     4.6780    29.5720 ca         1 RIU      -0.072300
      9 C15        -23.0690     4.5620    31.9210 ca         1 RIU      -0.099000
     10 C17        -22.3440     2.6010    30.7700 ca         1 RIU       0.127000
     11 C20        -19.0790     7.6640    26.0060 ca         1 RIU      -0.202000
     12 CL         -21.9640     0.8890    30.7760 cl         1 RIU      -0.211000
     13 C16        -22.7710     3.2040    31.9450 ca         1 RIU      -0.096000
     14 C14        -22.9400     5.2950    30.7460 ca         1 RIU      -0.086000
     15 C18        -22.2120     3.3150    29.5890 ca         1 RIU      -0.101000
     16 C12        -22.3270     5.4670    28.2990 c3         1 RIU      -0.110100
     17 C11        -20.8590     5.8270    28.1080 c          1 RIU       0.597100
     18 O1         -20.2910     6.6290    28.8390 o          1 RIU      -0.572100
     19 N2         -20.2370     5.1850    27.0860 ns         1 RIU      -0.165000
     20 C9         -18.0280     4.2240    26.9940 ca         1 RIU       0.319900
     21 C19        -18.3110     6.5110    26.2760 ca         1 RIU       0.043000
     22 O          -19.0940     9.9480    25.2200 os         1 RIU      -0.334100
     23 C3         -20.4900    10.0630    25.5310 c3         1 RIU       0.163600
     24 C2         -20.9270    11.4840    25.2510 c3         1 RIU       0.162800
     25 N          -20.3050    12.4820    26.1150 n3         1 RIU      -0.706600
     26 C1         -20.7870    12.4070    27.4880 c3         1 RIU       0.147600
     27 C          -20.4980    13.8220    25.5750 c3         1 RIU       0.147600
     28 H1         -16.6230     9.7000    24.8420 ha         1 RIU       0.134000
     29 H2         -15.2510     7.6840    25.2780 ha         1 RIU       0.121000
     30 H3         -15.1100     5.3330    26.0460 h4         1 RIU       0.020100
     31 H4         -23.4070     5.0480    32.8280 ha         1 RIU       0.122000
     32 H5         -20.1390     7.6460    26.1960 ha         1 RIU       0.124000
     33 H6         -22.8700     2.6270    32.8530 ha         1 RIU       0.132000
     34 H7         -23.1750     6.3510    30.7390 ha         1 RIU       0.123000
     35 H8         -21.8780     2.8170    28.6880 ha         1 RIU       0.123000
     36 H9         -22.8810     6.4040    28.3550 hc         1 RIU       0.068200
     37 H10        -22.6980     4.9000    27.4450 hc         1 RIU       0.068200
     38 H11        -20.7470     4.4620    26.6030 hn         1 RIU       0.153000
     39 H12        -18.4450     3.3040    27.3880 h4         1 RIU       0.019100
     40 H13        -20.6500     9.7830    26.5740 h1         1 RIU       0.041200
     41 H14        -21.0610     9.3760    24.9000 h1         1 RIU       0.041200
     42 H15        -20.6720    11.7250    24.2170 h1         1 RIU       0.043200
     43 H16        -22.0290    11.5110    25.3270 h1         1 RIU       0.043200
     44 H18        -20.2820    13.1630    28.0910 h1         1 RIU       0.032867
     45 H19        -21.8750    12.5810    27.5580 h1         1 RIU       0.032867
     46 H20        -20.5700    11.4320    27.9210 h1         1 RIU       0.032867
     47 H21        -19.9810    14.5490    26.2030 h1         1 RIU       0.032867
     48 H22        -20.0860    13.8790    24.5670 h1         1 RIU       0.032867
     49 H23        -21.5630    14.1090    25.5280 h1         1 RIU       0.032867
@<TRIPOS>BOND
     1     1     6 ar  
     2     1    20 ar  
     3     2     3 ar  
     4     2    11 ar  
     5     2    22 1   
     6     3     4 ar  
     7     3    28 1   
     8     4     5 ar  
     9     4    29 1   
    10     5     6 ar  
    11     5    21 ar  
    12     6    30 1   
    13     7    19 1   
    14     7    20 ar  
    15     7    21 ar  
    16     8    14 ar  
    17     8    15 ar  
    18     8    16 1   
    19     9    13 ar  
    20     9    14 ar  
    21     9    31 1   
    22    10    12 1   
    23    10    13 ar  
    24    10    15 ar  
    25    11    21 ar  
    26    11    32 1   
    27    13    33 1   
    28    14    34 1   
    29    15    35 1   
    30    16    17 1   
    31    16    36 1   
    32    16    37 1   
    33    17    18 2   
    34    17    19 1   
    35    19    38 1   
    36    20    39 1   
    37    22    23 1   
    38    23    24 1   
    39    23    40 1   
    40    23    41 1   
    41    24    25 1   
    42    24    42 1   
    43    24    43 1   
    44    25    26 1   
    45    25    27 1   
    46    26    44 1   
    47    26    45 1   
    48    26    46 1   
    49    27    47 1   
    50    27    48 1   
    51    27    49 1   
@<TRIPOS>SUBSTRUCTURE
     1 RIU         1 TEMP              0 ****  ****    0 ROOT
