@<TRIPOS>MOLECULE
RIU
   49    51     1     0     0
SMALL
No Charge or Current Charge


@<TRIPOS>ATOM
      1 N1         -16.6230     4.1800    26.7240 nb         1 RIU      -0.663000
      2 C4         -18.4050     8.8040    25.5780 ca         1 RIU       0.168100
      3 C5         -17.0320     8.8040    25.2910 ca         1 RIU      -0.126000
      4 C6         -16.2590     7.6540    25.5140 ca         1 RIU      -0.055000
      5 C7         -16.8610     6.4960    26.0390 ca         1 RIU      -0.126000
      6 C8         -16.0990     5.3300    26.2440 ca         1 RIU       0.369900
      7 C10        -18.7850     5.2910    26.8870 ca         1 RIU      -0.095000
      8 C13        -22.5390     4.6150    29.5710 ca         1 RIU      -0.072300
      9 C15        -23.0000     4.4340    31.9630 ca         1 RIU      -0.099000
     10 C17        -22.5760     2.4290    30.6540 ca         1 RIU       0.127000
     11 C20        -19.0110     7.6410    26.1030 ca         1 RIU      -0.202000
     12 Cl         -22.4120     0.6800    30.5550 cl         1 RIU      -0.211000
     13 C16        -22.8710     3.0360    31.8850 ca         1 RIU      -0.096000
     14 C14        -22.8340     5.2200    30.8090 ca         1 RIU      -0.086000
     15 C18        -22.4100     3.2130    29.5000 ca         1 RIU      -0.101000
     16 C12        -22.3530     5.4700    28.3210 c3         1 RIU      -0.110100
     17 C11        -20.8890     5.9050    28.1760 c          1 RIU       0.597100
     18 O1         -20.4150     6.8250    28.8340 o          1 RIU      -0.572100
     19 N2         -20.1470     5.1560    27.2760 ns         1 RIU      -0.165000
     20 C9         -17.9390     4.1720    27.0300 ca         1 RIU       0.319900
     21 C19        -18.2370     6.4850    26.3550 ca         1 RIU       0.043000
     22 O          -19.1130     9.9610    25.3240 os         1 RIU      -0.334100
     23 C3         -20.5220    10.0810    25.6110 c3         1 RIU       0.163600
     24 C2         -20.9960    11.5110    25.2310 c3         1 RIU       0.162800
     25 N          -20.3350    12.6470    25.9430 n3         1 RIU      -0.706600
     26 C1         -20.5020    12.6060    27.4160 c3         1 RIU       0.147600
     27 C          -20.7180    13.9600    25.3780 c3         1 RIU       0.147600
     28 H1         -16.5680     9.6990    24.8850 ha         1 RIU       0.134000
     29 H2         -15.1970     7.6640    25.2750 ha         1 RIU       0.121000
     30 H3         -15.0360     5.3100    26.0060 h4         1 RIU       0.020100
     31 H4         -23.2270     4.9070    32.9150 ha         1 RIU       0.122000
     32 H5         -20.0750     7.6310    26.3050 ha         1 RIU       0.124000
     33 H6         -22.9980     2.4260    32.7750 ha         1 RIU       0.132000
     34 H7         -22.9320     6.3020    30.8790 ha         1 RIU       0.123000
     35 H8         -22.1820     2.7290    28.5540 ha         1 RIU       0.123000
     36 H9         -22.9790     6.3660    28.3920 hc         1 RIU       0.068200
     37 H10        -22.6530     4.8880    27.4410 hc         1 RIU       0.068200
     38 H11        -20.6390     4.3810    26.8490 hn         1 RIU       0.153000
     39 H12        -18.3300     3.2340    27.4250 h4         1 RIU       0.019100
     40 H13        -20.7220     9.8940    26.6730 h1         1 RIU       0.041200
     41 H14        -21.0950     9.3540    25.0230 h1         1 RIU       0.041200
     42 H15        -20.8450    11.6240    24.1490 h1         1 RIU       0.043200
     43 H16        -22.0810    11.5580    25.3980 h1         1 RIU       0.043200
     44 H18        -19.9880    13.4540    27.8870 h1         1 RIU       0.032867
     45 H19        -21.5640    12.6520    27.6920 h1         1 RIU       0.032867
     46 H20        -20.0740    11.6870    27.8380 h1         1 RIU       0.032867
     47 H21        -20.1550    14.7700    25.8600 h1         1 RIU       0.032867
     48 H22        -20.5040    13.9970    24.3010 h1         1 RIU       0.032867
     49 H23        -21.7900    14.1520    25.5230 h1         1 RIU       0.032867
@<TRIPOS>BOND
     1     1     6 ar  
     2     1    20 ar  
     3     2     3 ar  
     4     2    11 ar  
     5     2    22 1   
     6     3     4 ar  
     7     3    28 1   
     8     4     5 ar  
     9     4    29 1   
    10     5     6 ar  
    11     5    21 ar  
    12     6    30 1   
    13     7    19 1   
    14     7    20 ar  
    15     7    21 ar  
    16     8    14 ar  
    17     8    15 ar  
    18     8    16 1   
    19     9    13 ar  
    20     9    14 ar  
    21     9    31 1   
    22    10    12 1   
    23    10    13 ar  
    24    10    15 ar  
    25    11    21 ar  
    26    11    32 1   
    27    13    33 1   
    28    14    34 1   
    29    15    35 1   
    30    16    17 1   
    31    16    36 1   
    32    16    37 1   
    33    17    18 2   
    34    17    19 1   
    35    19    38 1   
    36    20    39 1   
    37    22    23 1   
    38    23    24 1   
    39    23    40 1   
    40    23    41 1   
    41    24    25 1   
    42    24    42 1   
    43    24    43 1   
    44    25    26 1   
    45    25    27 1   
    46    26    44 1   
    47    26    45 1   
    48    26    46 1   
    49    27    47 1   
    50    27    48 1   
    51    27    49 1   
@<TRIPOS>SUBSTRUCTURE
     1 RIU         1 TEMP              0 ****  ****    0 ROOT
