@<TRIPOS>MOLECULE
RIV
   47    50     1     0     0
SMALL
abcg2


@<TRIPOS>ATOM
      1 C1          10.2070     3.1590    19.1800 c6         1 RIV       0.078000
      2 N2           8.7620     2.9890    19.0730 n          1 RIV      -0.240400
      3 C3          10.9200     1.9730    18.5760 c6         1 RIV       0.135600
      4 C4           8.1800     2.1380    18.2040 c          1 RIV       0.539000
      5 O5          10.4330     1.7380    17.2760 os         1 RIV      -0.432000
      6 C6           9.0960     1.3200    17.3130 c6         1 RIV       0.068600
      7 C7           6.3970     5.5120    21.4820 ca         1 RIV       0.003000
      8 C8           6.6060     5.8090    20.1360 ca         1 RIV      -0.137000
      9 C9           6.9730     4.3570    22.0170 ca         1 RIV      -0.137000
     10 C10          7.3790     4.9770    19.3430 ca         1 RIV      -0.074500
     11 C11          7.7350     3.5280    21.2140 ca         1 RIV      -0.074500
     12 C12          7.9460     3.8300    19.8760 ca         1 RIV      -0.073000
     13 O13          6.9700     1.9860    18.1300 o          1 RIV      -0.543000
     14 N14          5.6680     6.4130    22.2630 n          1 RIV      -0.255400
     15 C15          5.0470     6.1430    23.4460 c          1 RIV       0.699100
     16 C16          5.4080     7.7870    21.8680 c5         1 RIV       0.064000
     17 O17          4.5560     7.2820    23.9570 os         1 RIV      -0.418100
     18 C18          5.0660     8.4030    23.2200 c5         1 RIV       0.126300
     19 O19          4.9050     5.0830    24.0000 o          1 RIV      -0.516000
     20 C20          6.2530     9.0010    23.9720 c3         1 RIV       0.087000
     21 N21          7.2720     8.0240    24.2800 ns         1 RIV      -0.495900
     22 C22          8.2510     7.6740    23.4260 c          1 RIV       0.648700
     23 S23         10.1660     5.9540    22.5840 ss         1 RIV       0.367000
     24 C24         10.5010     4.5420    23.4910 cc         1 RIV      -0.050000
     25 C25          9.0030     6.4520    23.7500 cc         1 RIV      -0.308600
     26 C26          9.7610     4.4450    24.6310 cd         1 RIV      -0.128000
     27 C27          8.8920     5.5520    24.7730 cd         1 RIV      -0.085000
     28 O28          8.5120     8.2890    22.4000 o          1 RIV      -0.612100
     29 H11C        10.5100     4.0880    18.6880 h1         1 RIV       0.054700
     30 H12C        10.4760     3.2440    20.2340 h1         1 RIV       0.054700
     31 H31C        11.9870     2.1820    18.5040 h1         1 RIV       0.058700
     32 H32C        10.7920     1.0860    19.2120 h1         1 RIV       0.058700
     33 H61C         9.0080     0.2740    17.6440 h1         1 RIV       0.077700
     34 H62C         8.7020     1.3710    16.2960 h1         1 RIV       0.077700
     35 H8           6.1690     6.6920    19.6900 ha         1 RIV       0.129500
     36 H9           6.8470     4.1020    23.0570 ha         1 RIV       0.129500
     37 H10          7.5380     5.2270    18.3020 ha         1 RIV       0.124000
     38 H11          8.1810     2.6390    21.6420 ha         1 RIV       0.124000
     39 H161         6.2750     8.2500    21.4050 h1         1 RIV       0.079700
     40 H162         4.5670     7.8450    21.1720 h1         1 RIV       0.079700
     41 H18          4.2790     9.1510    23.1390 h1         1 RIV       0.094700
     42 H201         6.6730     9.8160    23.3810 h1         1 RIV       0.074200
     43 H202         5.9050     9.4320    24.9100 h1         1 RIV       0.074200
     44 H21          7.1640     7.5080    25.1380 hn         1 RIV       0.328500
     45 H26          9.8270     3.6250    25.3300 ha         1 RIV       0.151000
     46 H27          8.2120     5.6510    25.6080 ha         1 RIV       0.138000
     47 CL          11.6610     3.4180    22.9410 cl         1 RIV      -0.145000
@<TRIPOS>BOND
     1     1     2 1   
     2     1     3 1   
     3     1    29 1   
     4     1    30 1   
     5     2     4 1   
     6     2    12 1   
     7     3     5 1   
     8     3    31 1   
     9     3    32 1   
    10     4     6 1   
    11     4    13 2   
    12     5     6 1   
    13     6    33 1   
    14     6    34 1   
    15     7     8 ar  
    16     7     9 ar  
    17     7    14 1   
    18     8    10 ar  
    19     8    35 1   
    20     9    11 ar  
    21     9    36 1   
    22    10    12 ar  
    23    10    37 1   
    24    11    12 ar  
    25    11    38 1   
    26    14    15 1   
    27    14    16 1   
    28    15    17 1   
    29    15    19 2   
    30    16    18 1   
    31    16    39 1   
    32    16    40 1   
    33    17    18 1   
    34    18    20 1   
    35    18    41 1   
    36    20    21 1   
    37    20    42 1   
    38    20    43 1   
    39    21    22 1   
    40    21    44 1   
    41    22    25 1   
    42    22    28 2   
    43    23    24 1   
    44    23    25 1   
    45    24    26 2   
    46    24    47 1   
    47    25    27 2   
    48    26    27 1   
    49    26    45 1   
    50    27    46 1   
@<TRIPOS>SUBSTRUCTURE
     1 RIV         1 TEMP              0 ****  ****    0 ROOT
