@<TRIPOS>MOLECULE
RIV
   47    50     1     0     0
SMALL
No Charge or Current Charge


@<TRIPOS>ATOM
      1 C1          10.1340     2.5870    19.5590 c6         1 RIV       0.078000
      2 N2           8.7630     2.9490    19.0660 n          1 RIV      -0.240400
      3 C3          10.9360     1.5790    18.6900 c6         1 RIV       0.135600
      4 C4           8.2910     2.4390    17.8170 c          1 RIV       0.539000
      5 O5          10.5730     1.6720    17.2990 os         1 RIV      -0.432000
      6 C6           9.1710     1.3880    17.1070 c6         1 RIV       0.068600
      7 C7           6.4100     5.5910    21.5140 ca         1 RIV       0.003000
      8 C8           6.4550     5.7600    20.1170 ca         1 RIV      -0.137000
      9 C9           7.0600     4.4650    22.0580 ca         1 RIV      -0.137000
     10 C10          7.2490     4.9240    19.3120 ca         1 RIV      -0.074500
     11 C11          7.8600     3.6350    21.2570 ca         1 RIV      -0.074500
     12 C12          8.0330     3.8980    19.8820 ca         1 RIV      -0.073000
     13 O13          7.2610     2.8350    17.2810 o          1 RIV      -0.543000
     14 N14          5.5260     6.4180    22.3010 n          1 RIV      -0.255400
     15 C15          4.9290     6.0830    23.5250 c          1 RIV       0.699100
     16 C16          5.2600     7.8240    21.9570 c5         1 RIV       0.064000
     17 O17          4.4180     7.2180    24.0860 os         1 RIV      -0.418100
     18 C18          4.9220     8.3750    23.3720 c5         1 RIV       0.126300
     19 O19          4.8460     4.9730    24.0290 o          1 RIV      -0.516000
     20 C20          6.1440     8.9620    24.1460 c3         1 RIV       0.087000
     21 N21          7.2870     8.0430    24.2970 ns         1 RIV      -0.495900
     22 C22          8.2980     7.8980    23.3750 c          1 RIV       0.648700
     23 S23         10.3610     6.2580    22.3920 ss         1 RIV       0.367000
     24 C24         10.6800     4.7660    23.2710 cc         1 RIV      -0.050000
     25 C25          9.1290     6.7010    23.5690 cc         1 RIV      -0.308600
     26 C26          9.9120     4.6640    24.4020 cd         1 RIV      -0.128000
     27 C27          9.0250     5.7620    24.5770 cd         1 RIV      -0.085000
     28 O28          8.4580     8.6850    22.4560 o          1 RIV      -0.612100
     29 H11C        10.7180     3.5150    19.6310 h1         1 RIV       0.054700
     30 H12C        10.0710     2.1770    20.5750 h1         1 RIV       0.054700
     31 H31C        12.0140     1.7630    18.8000 h1         1 RIV       0.058700
     32 H32C        10.7370     0.5550    19.0380 h1         1 RIV       0.058700
     33 H61C         8.9230     0.3980    17.5140 h1         1 RIV       0.077700
     34 H62C         8.9350     1.4090    16.0350 h1         1 RIV       0.077700
     35 H8           5.8830     6.5520    19.6400 ha         1 RIV       0.129500
     36 H9           6.9940     4.2380    23.1180 ha         1 RIV       0.129500
     37 H10          7.2830     5.1160    18.2430 ha         1 RIV       0.124000
     38 H11          8.3450     2.7810    21.7230 ha         1 RIV       0.124000
     39 H161         6.1200     8.3240    21.4950 h1         1 RIV       0.079700
     40 H162         4.4010     7.9050    21.2780 h1         1 RIV       0.079700
     41 H18          4.1400     9.1460    23.3280 h1         1 RIV       0.094700
     42 H201         6.4810     9.8730    23.6330 h1         1 RIV       0.074200
     43 H202         5.8080     9.2640    25.1470 h1         1 RIV       0.074200
     44 H21          7.2550     7.3570    25.0380 hn         1 RIV       0.328500
     45 H26          9.9640     3.8200    25.0830 ha         1 RIV       0.151000
     46 H27          8.3300     5.8200    25.4090 ha         1 RIV       0.138000
     47 Cl          11.8440     3.5960    22.7290 cl         1 RIV      -0.145000
@<TRIPOS>BOND
     1     1     2 1   
     2     1     3 1   
     3     1    29 1   
     4     1    30 1   
     5     2     4 1   
     6     2    12 1   
     7     3     5 1   
     8     3    31 1   
     9     3    32 1   
    10     4     6 1   
    11     4    13 2   
    12     5     6 1   
    13     6    33 1   
    14     6    34 1   
    15     7     8 ar  
    16     7     9 ar  
    17     7    14 1   
    18     8    10 ar  
    19     8    35 1   
    20     9    11 ar  
    21     9    36 1   
    22    10    12 ar  
    23    10    37 1   
    24    11    12 ar  
    25    11    38 1   
    26    14    15 1   
    27    14    16 1   
    28    15    17 1   
    29    15    19 2   
    30    16    18 1   
    31    16    39 1   
    32    16    40 1   
    33    17    18 1   
    34    18    20 1   
    35    18    41 1   
    36    20    21 1   
    37    20    42 1   
    38    20    43 1   
    39    21    22 1   
    40    21    44 1   
    41    22    25 1   
    42    22    28 2   
    43    23    24 1   
    44    23    25 1   
    45    24    26 2   
    46    24    47 1   
    47    25    27 2   
    48    26    27 1   
    49    26    45 1   
    50    27    46 1   
@<TRIPOS>SUBSTRUCTURE
     1 RIV         1 TEMP              0 ****  ****    0 ROOT
