@<TRIPOS>MOLECULE
RIW
   33    36     1     0     0
SMALL
abcg2


@<TRIPOS>ATOM
      1 C18        -42.1110   -30.9590     1.3980 c5         1 RIW      -0.163400
      2 C16        -43.3640   -28.9070     1.6790 c5         1 RIW       0.087000
      3 C17        -42.2560   -29.5400     0.8280 c5         1 RIW      -0.083400
      4 C13        -45.2480   -29.6850     4.1700 ca         1 RIW       0.413900
      5 C11        -44.0230   -29.4870     6.1000 ca         1 RIW       0.185900
      6 C19        -43.4500   -31.2610     2.0370 c          1 RIW       0.579000
      7 C02        -50.5330   -28.7900     4.8810 ca         1 RIW       0.187000
      8 C03        -50.0110   -29.1320     3.6370 ca         1 RIW      -0.167000
      9 C04        -48.6460   -29.3560     3.5120 ca         1 RIW      -0.045000
     10 C05        -47.8240   -29.2320     4.6340 cp         1 RIW      -0.064000
     11 C06        -48.4110   -28.8870     5.8830 ca         1 RIW       0.009800
     12 C07        -49.7740   -28.6590     6.0280 ca         1 RIW      -0.169000
     13 C09        -46.2130   -29.1300     6.2660 ca         1 RIW       0.201500
     14 C21        -46.4110   -29.3800     4.8920 cp         1 RIW      -0.239000
     15 F01        -51.8710   -28.5730     4.9720 f          1 RIW      -0.181000
     16 N08        -47.4170   -28.8340     6.8420 na         1 RIW      -0.330300
     17 N10        -45.0390   -29.1750     6.9010 nb         1 RIW      -0.231000
     18 N12        -44.0610   -29.7390     4.7900 nb         1 RIW      -0.270000
     19 N15        -44.1350   -30.0810     2.0990 n          1 RIW      -0.256200
     20 O20        -43.8530   -32.3370     2.4480 o          1 RIW      -0.511000
     21 H181       -41.8580   -31.7150     0.6560 hc         1 RIW       0.081700
     22 H182       -41.3600   -31.0050     2.1920 hc         1 RIW       0.081700
     23 H161       -42.9720   -28.3880     2.5570 h1         1 RIW       0.054700
     24 H162       -44.0010   -28.2240     1.1180 h1         1 RIW       0.054700
     25 H171       -42.5750   -29.5890    -0.2130 hc         1 RIW       0.058700
     26 H172       -41.3320   -28.9680     0.8760 hc         1 RIW       0.058700
     27 H111       -43.0430   -29.5410     6.5640 h5         1 RIW       0.051100
     28 H031       -50.6740   -29.2200     2.7880 ha         1 RIW       0.135000
     29 H041       -48.2460   -29.6290     2.5460 ha         1 RIW       0.115000
     30 H071       -50.2250   -28.3950     6.9740 ha         1 RIW       0.140000
     31 H081       -47.5510   -28.6160     7.8180 hn         1 RIW       0.371000
     32 H141       -46.1160   -29.7280     2.3020 hn         1 RIW       0.517000
     33 N14        -45.2900   -29.9620     2.8300 nu         1 RIW      -0.672100
@<TRIPOS>BOND
     1     1     3 1   
     2     1     6 1   
     3     1    21 1   
     4     1    22 1   
     5     2     3 1   
     6     2    19 1   
     7     2    23 1   
     8     2    24 1   
     9     3    25 1   
    10     3    26 1   
    11     4    14 ar  
    12     4    18 ar  
    13     4    33 1   
    14     5    17 ar  
    15     5    18 ar  
    16     5    27 1   
    17     6    19 1   
    18     6    20 2   
    19     7     8 ar  
    20     7    12 ar  
    21     7    15 1   
    22     8     9 ar  
    23     8    28 1   
    24     9    10 ar  
    25     9    29 1   
    26    10    11 ar  
    27    10    14 1   
    28    11    12 ar  
    29    11    16 1   
    30    12    30 1   
    31    13    14 ar  
    32    13    16 1   
    33    13    17 ar  
    34    16    31 1   
    35    19    33 1   
    36    32    33 1   
@<TRIPOS>SUBSTRUCTURE
     1 RIW         1 TEMP              0 ****  ****    0 ROOT
