@<TRIPOS>MOLECULE
RIW
   33    36     1     0     0
SMALL
No Charge or Current Charge


@<TRIPOS>ATOM
      1 C18        -42.3440   -31.1460     1.3880 c5         1 RIW      -0.163400
      2 C16        -43.0700   -28.8480     1.5180 c5         1 RIW       0.087000
      3 C17        -42.4250   -29.8600     0.5160 c5         1 RIW      -0.083400
      4 C13        -45.1340   -29.2520     4.3850 ca         1 RIW       0.413900
      5 C11        -43.9780   -29.2660     6.3860 ca         1 RIW       0.185900
      6 C19        -43.6630   -31.1230     2.1550 c          1 RIW       0.579000
      7 C02        -50.5570   -29.0160     4.6990 ca         1 RIW       0.187000
      8 C03        -49.8290   -29.0340     3.4860 ca         1 RIW      -0.167000
      9 C04        -48.4170   -29.0930     3.4930 ca         1 RIW      -0.045000
     10 C05        -47.7530   -29.1390     4.7390 cp         1 RIW      -0.064000
     11 C06        -48.4980   -29.1130     5.9130 ca         1 RIW       0.009800
     12 C07        -49.8930   -29.0540     5.9400 ca         1 RIW      -0.169000
     13 C09        -46.2460   -29.1920     6.5170 ca         1 RIW       0.201500
     14 C21        -46.3370   -29.1960     5.1210 cp         1 RIW      -0.239000
     15 F01        -51.9060   -28.9580     4.6660 f          1 RIW      -0.181000
     16 N08        -47.5730   -29.1470     6.9620 na         1 RIW      -0.330300
     17 N10        -45.0770   -29.2270     7.1740 nb         1 RIW      -0.231000
     18 N12        -43.9460   -29.2800     5.0320 nb         1 RIW      -0.270000
     19 N15        -43.9380   -29.7460     2.3070 n          1 RIW      -0.256200
     20 O20        -44.4520   -32.0310     2.3840 o          1 RIW      -0.511000
     21 H181       -42.2070   -32.0840     0.8400 hc         1 RIW       0.081700
     22 H182       -41.5320   -31.0140     2.1120 hc         1 RIW       0.081700
     23 H161       -42.3160   -28.3790     2.1640 h1         1 RIW       0.054700
     24 H162       -43.6370   -28.0590     1.0060 h1         1 RIW       0.054700
     25 H171       -43.0740   -30.0160    -0.3540 hc         1 RIW       0.058700
     26 H172       -41.4490   -29.5260     0.1460 hc         1 RIW       0.058700
     27 H111       -43.0160   -29.2920     6.8950 h5         1 RIW       0.051100
     28 H031       -50.3640   -28.9990     2.5400 ha         1 RIW       0.135000
     29 H041       -47.8710   -29.0960     2.5550 ha         1 RIW       0.115000
     30 H071       -50.4460   -29.0340     6.8750 ha         1 RIW       0.140000
     31 H081       -47.8270   -29.1380     7.9420 hn         1 RIW       0.371000
     32 H141       -46.0020   -29.4910     2.5160 hn         1 RIW       0.517000
     33 N14        -45.1200   -29.2750     2.9850 nu         1 RIW      -0.672100
@<TRIPOS>BOND
     1     1     3 1   
     2     1     6 1   
     3     1    21 1   
     4     1    22 1   
     5     2     3 1   
     6     2    19 1   
     7     2    23 1   
     8     2    24 1   
     9     3    25 1   
    10     3    26 1   
    11     4    14 ar  
    12     4    18 ar  
    13     4    33 1   
    14     5    17 ar  
    15     5    18 ar  
    16     5    27 1   
    17     6    19 1   
    18     6    20 2   
    19     7     8 ar  
    20     7    12 ar  
    21     7    15 1   
    22     8     9 ar  
    23     8    28 1   
    24     9    10 ar  
    25     9    29 1   
    26    10    11 ar  
    27    10    14 1   
    28    11    12 ar  
    29    11    16 1   
    30    12    30 1   
    31    13    14 ar  
    32    13    16 1   
    33    13    17 ar  
    34    16    31 1   
    35    19    33 1   
    36    32    33 1   
@<TRIPOS>SUBSTRUCTURE
     1 RIW         1 TEMP              0 ****  ****    0 ROOT
