@<TRIPOS>MOLECULE
RIX
   24    25     1     0     0
SMALL
abcg2


@<TRIPOS>ATOM
      1 C01         22.8990    67.0370    71.8900 c3         1 RIX       0.150900
      2 C03         25.1040    67.8720    72.0730 c          1 RIX       0.519100
      3 C05         26.4650    67.6750    72.7550 c          1 RIX       0.572100
      4 C08         26.8680    65.6980    71.3190 cc         1 RIX      -0.112400
      5 C09         27.8590    64.7960    71.1530 cd         1 RIX      -0.185200
      6 C10         28.8960    65.1070    72.1050 ca         1 RIX      -0.088800
      7 C11         30.1310    64.5370    72.4050 ca         1 RIX       0.162000
      8 C12         30.9220    65.0740    73.4070 ca         1 RIX      -0.116000
      9 C13         30.4800    66.1930    74.1190 ca         1 RIX      -0.087000
     10 C14         29.2560    66.7960    73.8530 ca         1 RIX      -0.097000
     11 C15         28.4830    66.2370    72.8430 ca         1 RIX      -0.071000
     12 N07         27.2130    66.6000    72.3470 n          1 RIX      -0.093600
     13 O02         24.2500    66.9210    72.4140 os         1 RIX      -0.435100
     14 O04         24.8740    68.8280    71.3780 o          1 RIX      -0.434000
     15 O06         26.8200    68.4770    73.5920 o          1 RIX      -0.506100
     16 H1          22.3670    66.1790    72.2870 h1         1 RIX       0.058700
     17 H2          22.4520    67.9670    72.2330 h1         1 RIX       0.058700
     18 H3          22.9280    67.0080    70.8020 h1         1 RIX       0.058700
     19 H4          25.9320    65.7940    70.7990 h4         1 RIX       0.224000
     20 H5          27.8660    63.9920    70.4370 ha         1 RIX       0.220000
     21 H6          31.8790    64.6260    73.6350 ha         1 RIX       0.132000
     22 H7          31.1110    66.5990    74.8980 ha         1 RIX       0.123000
     23 H8          28.9240    67.6580    74.4070 ha         1 RIX       0.148000
     24 CL16        30.6740    63.1360    71.5130 cl         1 RIX      -0.202000
@<TRIPOS>BOND
     1     1    13 1   
     2     1    16 1   
     3     1    17 1   
     4     1    18 1   
     5     2     3 1   
     6     2    13 1   
     7     2    14 2   
     8     3    12 1   
     9     3    15 2   
    10     4     5 2   
    11     4    12 1   
    12     4    19 1   
    13     5     6 1   
    14     5    20 1   
    15     6     7 ar  
    16     6    11 ar  
    17     7     8 ar  
    18     7    24 1   
    19     8     9 ar  
    20     8    21 1   
    21     9    10 ar  
    22     9    22 1   
    23    10    11 ar  
    24    10    23 1   
    25    11    12 1   
@<TRIPOS>SUBSTRUCTURE
     1 RIX         1 TEMP              0 ****  ****    0 ROOT
