@<TRIPOS>MOLECULE
RIX
   24    25     1     0     0
SMALL
No Charge or Current Charge


@<TRIPOS>ATOM
      1 C01         22.7970    67.0280    71.8240 c3         1 RIX       0.150900
      2 C03         25.0240    67.9340    72.1110 c          1 RIX       0.519100
      3 C05         26.4450    67.7220    72.7940 c          1 RIX       0.572100
      4 C08         26.8790    65.7030    71.3580 cc         1 RIX      -0.112400
      5 C09         27.8890    64.7770    71.2050 cd         1 RIX      -0.185200
      6 C10         28.9420    65.1090    72.1520 ca         1 RIX      -0.088800
      7 C11         30.1750    64.4890    72.4000 ca         1 RIX       0.162000
      8 C12         31.0060    65.0390    73.3960 ca         1 RIX      -0.116000
      9 C13         30.5950    66.1860    74.1180 ca         1 RIX      -0.087000
     10 C14         29.3490    66.7950    73.8530 ca         1 RIX      -0.097000
     11 C15         28.5330    66.2330    72.8540 ca         1 RIX      -0.071000
     12 N07         27.2360    66.6160    72.3650 n          1 RIX      -0.093600
     13 O02         24.1190    66.9280    72.3870 os         1 RIX      -0.435100
     14 O04         24.7650    68.9090    71.4100 o          1 RIX      -0.434000
     15 O06         26.8320    68.5060    73.6620 o          1 RIX      -0.506100
     16 H1          22.1870    66.1660    72.1230 h1         1 RIX       0.058700
     17 H2          22.2900    67.9380    72.1710 h1         1 RIX       0.058700
     18 H3          22.8370    67.0510    70.7270 h1         1 RIX       0.058700
     19 H4          25.9270    65.8100    70.8460 h4         1 RIX       0.224000
     20 H5          27.8910    63.9500    70.4980 ha         1 RIX       0.220000
     21 H6          31.9670    64.5790    73.6100 ha         1 RIX       0.132000
     22 H7          31.2450    66.6010    74.8850 ha         1 RIX       0.123000
     23 H8          29.0460    67.6740    74.4160 ha         1 RIX       0.148000
     24 Cl16        30.6770    63.0630    71.4980 cl         1 RIX      -0.202000
@<TRIPOS>BOND
     1     1    13 1   
     2     1    16 1   
     3     1    17 1   
     4     1    18 1   
     5     2     3 1   
     6     2    13 1   
     7     2    14 2   
     8     3    12 1   
     9     3    15 2   
    10     4     5 2   
    11     4    12 1   
    12     4    19 1   
    13     5     6 1   
    14     5    20 1   
    15     6     7 ar  
    16     6    11 ar  
    17     7     8 ar  
    18     7    24 1   
    19     8     9 ar  
    20     8    21 1   
    21     9    10 ar  
    22     9    22 1   
    23    10    11 ar  
    24    10    23 1   
    25    11    12 1   
@<TRIPOS>SUBSTRUCTURE
     1 RIX         1 TEMP              0 ****  ****    0 ROOT
