@<TRIPOS>MOLECULE
RIY
   51    54     1     0     0
SMALL
No Charge or Current Charge


@<TRIPOS>ATOM
      1 N1         -21.7310     6.9390    29.3750 n3         1 RIY      -0.790500
      2 N3         -16.8070     3.8460    26.7220 nb         1 RIY      -0.647000
      3 C4         -21.1370     4.3690    27.5810 c          1 RIY       0.608100
      4 C5         -18.8150     5.2140    26.9630 ca         1 RIY      -0.082000
      5 C6         -18.0910     4.0080    27.1200 ca         1 RIY       0.323900
      6 C7         -16.1910     4.9010    26.1430 ca         1 RIY       0.345900
      7 C8         -16.8230     6.1430    25.9380 ca         1 RIY      -0.090000
      8 C10        -16.7780     8.4350    25.1150 ca         1 RIY      -0.110000
      9 C13        -18.1620     6.3090    26.3510 ca         1 RIY      -0.035000
     10 C15        -22.5640     2.7280    29.8620 ca         1 RIY      -0.084000
     11 C17        -22.1790     2.8950    32.2570 ca         1 RIY      -0.090000
     12 C20        -21.8930     6.4150    30.7560 c6         1 RIY       0.261100
     13 C16        -22.4720     2.1210    31.1240 ca         1 RIY       0.126000
     14 C18        -21.9810     4.2800    32.1260 ca         1 RIY      -0.100000
     15 C19        -22.0690     4.8960    30.8620 ca         1 RIY      -0.062300
     16 S          -21.7460     8.6410    29.2960 s6         1 RIY       1.337200
     17 O          -21.3830     9.0670    27.9490 o          1 RIY      -0.580000
     18 O1         -22.9420     9.1230    29.9810 o          1 RIY      -0.580000
     19 N          -20.4400     8.9250    30.2650 n7         1 RIY      -0.925300
     20 C1         -19.1120     8.4070    29.8900 c3         1 RIY       0.217800
     21 C          -18.3300     9.4380    29.0560 c3         1 RIY      -0.129100
     22 C14        -22.3610     4.1160    29.7220 ca         1 RIY      -0.049300
     23 C3         -22.4270     4.7670    28.3340 c6         1 RIY      -0.098400
     24 C2         -22.6750     6.2950    28.4380 c6         1 RIY       0.228800
     25 O2         -21.0180     3.2470    27.0990 o          1 RIY      -0.559100
     26 N2         -20.1490     5.3330    27.4470 ns         1 RIY      -0.159000
     27 C12        -18.8070     7.5430    26.1250 ca         1 RIY      -0.101000
     28 C11        -18.1160     8.6010    25.5100 ca         1 RIY      -0.085000
     29 C9         -16.1310     7.2060    25.3250 ca         1 RIY      -0.087000
     30 H1         -18.5390     3.1440    27.6090 h4         1 RIY       0.041100
     31 H2         -15.1590     4.7430    25.8330 h4         1 RIY       0.021100
     32 H3         -16.2450     9.2570    24.6400 ha         1 RIY       0.118000
     33 H4         -22.7870     2.1150    28.9920 ha         1 RIY       0.130000
     34 H5         -22.1100     2.4230    33.2340 ha         1 RIY       0.133000
     35 H6         -21.0300     6.6950    31.3770 h1         1 RIY       0.068200
     36 H7         -22.7760     6.8670    31.2320 h1         1 RIY       0.068200
     37 H8         -21.7640     4.8760    33.0100 ha         1 RIY       0.121000
     38 H9         -20.4220     9.9390    30.2420 hn         1 RIY       0.495000
     39 H10        -19.1780     7.4550    29.3440 h1         1 RIY       0.066200
     40 H11        -18.5260     8.2090    30.7980 h1         1 RIY       0.066200
     41 H12        -17.3480     9.0320    28.7860 hc         1 RIY       0.049367
     42 H13        -18.8550     9.6910    28.1290 hc         1 RIY       0.049367
     43 H14        -18.1710    10.3590    29.6270 hc         1 RIY       0.049367
     44 H15        -23.2590     4.2990    27.7910 hc         1 RIY       0.075700
     45 H16        -22.5940     6.7310    27.4310 h1         1 RIY       0.066200
     46 H17        -23.7100     6.4660    28.7710 h1         1 RIY       0.066200
     47 H18        -20.3820     6.2360    27.8450 hn         1 RIY       0.154000
     48 H19        -19.8440     7.6920    26.4110 ha         1 RIY       0.125000
     49 H20        -18.6190     9.5510    25.3390 ha         1 RIY       0.123000
     50 H21        -15.0970     7.0810    25.0100 ha         1 RIY       0.118000
     51 Cl         -22.7220     0.3880    31.2860 cl         1 RIY      -0.207000
@<TRIPOS>BOND
     1     1    12 1   
     2     1    16 1   
     3     1    24 1   
     4     2     5 ar  
     5     2     6 ar  
     6     3    23 1   
     7     3    25 2   
     8     3    26 1   
     9     4     5 ar  
    10     4     9 ar  
    11     4    26 1   
    12     5    30 1   
    13     6     7 ar  
    14     6    31 1   
    15     7     9 ar  
    16     7    29 ar  
    17     8    28 ar  
    18     8    29 ar  
    19     8    32 1   
    20     9    27 ar  
    21    10    13 ar  
    22    10    22 ar  
    23    10    33 1   
    24    11    13 ar  
    25    11    14 ar  
    26    11    34 1   
    27    12    15 1   
    28    12    35 1   
    29    12    36 1   
    30    13    51 1   
    31    14    15 ar  
    32    14    37 1   
    33    15    22 ar  
    34    16    17 2   
    35    16    18 2   
    36    16    19 1   
    37    19    20 1   
    38    19    38 1   
    39    20    21 1   
    40    20    39 1   
    41    20    40 1   
    42    21    41 1   
    43    21    42 1   
    44    21    43 1   
    45    22    23 1   
    46    23    24 1   
    47    23    44 1   
    48    24    45 1   
    49    24    46 1   
    50    26    47 1   
    51    27    28 ar  
    52    27    48 1   
    53    28    49 1   
    54    29    50 1   
@<TRIPOS>SUBSTRUCTURE
     1 RIY         1 TEMP              0 ****  ****    0 ROOT
