@<TRIPOS>MOLECULE
RIY
   51    54     1     0     0
SMALL
abcg2


@<TRIPOS>ATOM
      1 N1         -21.8010     6.9240    29.6470 n3         1 RIY      -0.790500
      2 N3         -16.3520     4.5190    26.8500 nb         1 RIY      -0.647000
      3 C4         -20.4420     4.6830    28.3580 c          1 RIY       0.608100
      4 C5         -18.6360     5.2720    26.7910 ca         1 RIY      -0.082000
      5 C6         -17.6680     4.3590    27.1350 ca         1 RIY       0.323900
      6 C7         -15.9840     5.5970    26.1960 ca         1 RIY       0.345900
      7 C8         -16.8830     6.6050    25.7760 ca         1 RIY      -0.090000
      8 C10        -17.3400     8.7270    24.7190 ca         1 RIY      -0.110000
      9 C13        -18.2630     6.4520    26.0870 ca         1 RIY      -0.035000
     10 C15        -22.6510     2.8060    29.9120 ca         1 RIY      -0.084000
     11 C17        -23.1530     3.0190    32.2670 ca         1 RIY      -0.090000
     12 C20        -22.2760     6.4590    30.9540 c6         1 RIY       0.261100
     13 C16        -23.0260     2.2450    31.1200 ca         1 RIY       0.126000
     14 C18        -22.8970     4.3790    32.1810 ca         1 RIY      -0.100000
     15 C19        -22.5140     4.9680    30.9750 ca         1 RIY      -0.062300
     16 S          -21.3190     8.4850    29.5550 s6         1 RIY       1.337200
     17 O          -21.1300     8.7630    28.1500 o          1 RIY      -0.580000
     18 O1         -22.1890     9.3650    30.3040 o          1 RIY      -0.580000
     19 N          -19.9280     8.4430    30.3940 n7         1 RIY      -0.925300
     20 C1         -18.7330     7.7900    29.8360 c3         1 RIY       0.217800
     21 C          -17.8790     8.6950    28.9600 c3         1 RIY      -0.129100
     22 C14        -22.3920     4.1730    29.8360 ca         1 RIY      -0.049300
     23 C3         -21.9660     4.7900    28.5290 c6         1 RIY      -0.098400
     24 C2         -22.4060     6.2590    28.4930 c6         1 RIY       0.228800
     25 O2         -19.7040     4.3150    29.2580 o          1 RIY      -0.559100
     26 N2         -19.9890     5.0710    27.1320 ns         1 RIY      -0.159000
     27 C12        -19.1630     7.4730    25.7060 ca         1 RIY      -0.101000
     28 C11        -18.7070     8.5820    25.0370 ca         1 RIY      -0.085000
     29 C9         -16.4430     7.7570    25.0850 ca         1 RIY      -0.087000
     30 H1         -17.9390     3.4570    27.6640 h4         1 RIY       0.041100
     31 H2         -14.9270     5.7090    25.9710 h4         1 RIY       0.021100
     32 H3         -17.0040     9.6110    24.1920 ha         1 RIY       0.118000
     33 H4         -22.5570     2.1880    29.0290 ha         1 RIY       0.130000
     34 H5         -23.4470     2.5690    33.2040 ha         1 RIY       0.133000
     35 H6         -21.5280     6.7220    31.7030 h1         1 RIY       0.068200
     36 H7         -23.2060     6.9730    31.2240 h1         1 RIY       0.068200
     37 H8         -22.9960     4.9930    33.0680 ha         1 RIY       0.121000
     38 H9         -19.7730     9.3030    30.9050 hn         1 RIY       0.495000
     39 H10        -19.0720     6.9180    29.2820 h1         1 RIY       0.066200
     40 H11        -18.1550     7.4190    30.6830 h1         1 RIY       0.066200
     41 H12        -17.0060     8.1450    28.6040 hc         1 RIY       0.049367
     42 H13        -18.4390     9.0420    28.0930 hc         1 RIY       0.049367
     43 H14        -17.5300     9.5620    29.5260 hc         1 RIY       0.049367
     44 H15        -22.4420     4.2660    27.6970 hc         1 RIY       0.075700
     45 H16        -22.0770     6.7590    27.5900 h1         1 RIY       0.066200
     46 H17        -23.4980     6.3110    28.5370 h1         1 RIY       0.066200
     47 H18        -20.6770     5.3830    26.4640 hn         1 RIY       0.154000
     48 H19        -20.2090     7.4070    25.9670 ha         1 RIY       0.125000
     49 H20        -19.4040     9.3620    24.7610 ha         1 RIY       0.123000
     50 H21        -15.3890     7.8590    24.8580 ha         1 RIY       0.118000
     51 CL         -23.3520     0.5240    31.2050 cl         1 RIY      -0.207000
@<TRIPOS>BOND
     1     1    12 1   
     2     1    16 1   
     3     1    24 1   
     4     2     5 ar  
     5     2     6 ar  
     6     3    23 1   
     7     3    25 2   
     8     3    26 1   
     9     4     5 ar  
    10     4     9 ar  
    11     4    26 1   
    12     5    30 1   
    13     6     7 ar  
    14     6    31 1   
    15     7     9 ar  
    16     7    29 ar  
    17     8    28 ar  
    18     8    29 ar  
    19     8    32 1   
    20     9    27 ar  
    21    10    13 ar  
    22    10    22 ar  
    23    10    33 1   
    24    11    13 ar  
    25    11    14 ar  
    26    11    34 1   
    27    12    15 1   
    28    12    35 1   
    29    12    36 1   
    30    13    51 1   
    31    14    15 ar  
    32    14    37 1   
    33    15    22 ar  
    34    16    17 2   
    35    16    18 2   
    36    16    19 1   
    37    19    20 1   
    38    19    38 1   
    39    20    21 1   
    40    20    39 1   
    41    20    40 1   
    42    21    41 1   
    43    21    42 1   
    44    21    43 1   
    45    22    23 1   
    46    23    24 1   
    47    23    44 1   
    48    24    45 1   
    49    24    46 1   
    50    26    47 1   
    51    27    28 ar  
    52    27    48 1   
    53    28    49 1   
    54    29    50 1   
@<TRIPOS>SUBSTRUCTURE
     1 RIY         1 TEMP              0 ****  ****    0 ROOT
