@<TRIPOS>MOLECULE
RIZ
   40    43     1     0     0
SMALL
abcg2


@<TRIPOS>ATOM
      1 C16        -49.9490   -28.8230     3.3840 ca         1 RIZ      -0.182000
      2 C17        -48.5600   -28.8450     3.4090 ca         1 RIZ      -0.040000
      3 C15        -50.6570   -29.1150     4.5450 ca         1 RIZ       0.166000
      4 C14        -50.0570   -29.4090     5.7530 ca         1 RIZ      -0.181000
      5 C13        -48.6670   -29.4170     5.7580 ca         1 RIZ       0.003800
      6 C12        -47.8900   -29.1670     4.5930 cp         1 RIZ      -0.025000
      7 C11        -46.5030   -29.2520     5.0120 cp         1 RIZ      -0.218000
      8 C10        -45.2150   -29.1470     4.4460 ca         1 RIZ       0.449900
      9 C20        -46.5220   -29.4850     6.4070 ca         1 RIZ       0.202500
     10 C03        -44.8860   -31.0210     1.6350 c6         1 RIZ      -0.213700
     11 C04        -43.5160   -30.6690     1.0350 c6         1 RIZ      -0.066400
     12 C05        -43.5270   -29.3390     0.2520 c6         1 RIZ      -0.079400
     13 C06        -44.9190   -29.0340    -0.3000 c6         1 RIZ      -0.067400
     14 C07        -45.9390   -28.8550     0.8370 c6         1 RIZ      -0.082400
     15 C08        -45.6600   -29.7590     2.0590 c6         1 RIZ       0.234500
     16 C22        -44.3160   -29.2900     6.5730 ca         1 RIZ       0.188900
     17 F18        -52.0150   -29.0960     4.4910 f          1 RIZ      -0.201000
     18 N09        -44.9370   -29.0420     3.1220 nu         1 RIZ      -0.893100
     19 N19        -47.8170   -29.6200     6.8260 na         1 RIZ      -0.339300
     20 N21        -45.4600   -29.5260     7.2150 nb         1 RIZ      -0.267000
     21 N23        -44.1390   -29.1130     5.2690 nb         1 RIZ      -0.282000
     22 H161       -50.4870   -28.5770     2.4790 ha         1 RIZ       0.120000
     23 H171       -48.0210   -28.5930     2.5100 ha         1 RIZ       0.126000
     24 H141       -50.6430   -29.6060     6.6400 ha         1 RIZ       0.124000
     25 H031       -45.5060   -31.4810     0.8610 hc         1 RIZ       0.044700
     26 H042       -43.2140   -31.4830     0.3720 hc         1 RIZ       0.048700
     27 H041       -42.7730   -30.6370     1.8320 hc         1 RIZ       0.048700
     28 H052       -42.7940   -29.3770    -0.5560 hc         1 RIZ       0.021700
     29 H051       -43.2170   -28.5130     0.9010 hc         1 RIZ       0.021700
     30 H061       -45.2300   -29.8560    -0.9520 hc         1 RIZ       0.025700
     31 H062       -44.9000   -28.1350    -0.9210 hc         1 RIZ       0.025700
     32 H071       -45.9440   -27.8170     1.1750 hc         1 RIZ       0.033700
     33 H072       -46.9420   -29.0720     0.4630 hc         1 RIZ       0.033700
     34 H081       -46.5950   -30.0910     2.4910 h1         1 RIZ       0.086700
     35 H221       -43.4190   -29.2550     7.1850 h5         1 RIZ       0.033100
     36 H091       -43.9440   -28.9420     2.9640 hn         1 RIZ       0.484000
     37 H191       -48.0970   -29.7560     7.7840 hn         1 RIZ       0.355000
     38 C02        -44.8510   -32.0430     2.7990 c          1 RIZ       0.704000
     39 O01        -43.7490   -32.3080     3.3400 o          1 RIZ      -0.723500
     40 O24        -45.9680   -32.5290     3.1260 o          1 RIZ      -0.723500
@<TRIPOS>BOND
     1     1     2 ar  
     2     1     3 ar  
     3     1    22 1   
     4     2     6 ar  
     5     2    23 1   
     6     3     4 ar  
     7     3    17 1   
     8     4     5 ar  
     9     4    24 1   
    10     5     6 ar  
    11     5    19 1   
    12     6     7 1   
    13     7     8 ar  
    14     7     9 ar  
    15     8    18 1   
    16     8    21 ar  
    17     9    19 1   
    18     9    20 ar  
    19    10    11 1   
    20    10    15 1   
    21    10    25 1   
    22    10    38 1   
    23    11    12 1   
    24    11    26 1   
    25    11    27 1   
    26    12    13 1   
    27    12    28 1   
    28    12    29 1   
    29    13    14 1   
    30    13    30 1   
    31    13    31 1   
    32    14    15 1   
    33    14    32 1   
    34    14    33 1   
    35    15    18 1   
    36    15    34 1   
    37    16    20 ar  
    38    16    21 ar  
    39    16    35 1   
    40    18    36 1   
    41    19    37 1   
    42    38    39 1   
    43    38    40 1   
@<TRIPOS>SUBSTRUCTURE
     1 RIZ         1 TEMP              0 ****  ****    0 ROOT
