@<TRIPOS>MOLECULE
RIZ
   40    43     1     0     0
SMALL
No Charge or Current Charge


@<TRIPOS>ATOM
      1 C16        -49.9740   -28.6400     3.4640 ca         1 RIZ      -0.182000
      2 C17        -48.5620   -28.6910     3.5020 ca         1 RIZ      -0.040000
      3 C15        -50.7370   -28.9780     4.6050 ca         1 RIZ       0.166000
      4 C14        -50.1080   -29.3510     5.8080 ca         1 RIZ      -0.181000
      5 C13        -48.7120   -29.4040     5.8060 ca         1 RIZ       0.003800
      6 C12        -47.9320   -29.1210     4.6890 cp         1 RIZ      -0.025000
      7 C11        -46.5250   -29.2410     5.0930 cp         1 RIZ      -0.218000
      8 C10        -45.2870   -29.1130     4.4190 ca         1 RIZ       0.449900
      9 C20        -46.4790   -29.5150     6.4650 ca         1 RIZ       0.202500
     10 C03        -44.8490   -31.0560     1.6890 c6         1 RIZ      -0.213700
     11 C04        -43.4440   -30.6330     1.1470 c6         1 RIZ      -0.066400
     12 C05        -43.4910   -29.3220     0.3060 c6         1 RIZ      -0.079400
     13 C06        -44.8870   -29.0840    -0.3230 c6         1 RIZ      -0.067400
     14 C07        -46.0130   -28.9900     0.7540 c6         1 RIZ      -0.082400
     15 C08        -45.7420   -29.8360     2.0430 c6         1 RIZ       0.234500
     16 C22        -44.2100   -29.3880     6.4360 ca         1 RIZ       0.188900
     17 F18        -52.0850   -28.9080     4.5520 f          1 RIZ      -0.201000
     18 N09        -45.1230   -28.9550     3.0500 nu         1 RIZ      -0.893100
     19 N19        -47.8170   -29.6500     6.8520 na         1 RIZ      -0.339300
     20 N21        -45.3340   -29.5930     7.1590 nb         1 RIZ      -0.267000
     21 N23        -44.1300   -29.1500     5.1050 nb         1 RIZ      -0.282000
     22 H161       -50.4790   -28.3210     2.5560 ha         1 RIZ       0.120000
     23 H171       -47.9840   -28.3780     2.6400 ha         1 RIZ       0.126000
     24 H141       -50.6860   -29.5730     6.7010 ha         1 RIZ       0.124000
     25 H031       -45.3860   -31.5290     0.8540 hc         1 RIZ       0.044700
     26 H042       -43.0400   -31.4510     0.5350 hc         1 RIZ       0.048700
     27 H041       -42.7360   -30.4980     1.9760 hc         1 RIZ       0.048700
     28 H052       -42.7250   -29.3580    -0.4800 hc         1 RIZ       0.021700
     29 H051       -43.2320   -28.4640     0.9420 hc         1 RIZ       0.021700
     30 H061       -45.1110   -29.9050    -1.0180 hc         1 RIZ       0.025700
     31 H062       -44.8760   -28.1680    -0.9300 hc         1 RIZ       0.025700
     32 H071       -46.1850   -27.9370     1.0170 hc         1 RIZ       0.033700
     33 H072       -46.9530   -29.3300     0.2970 hc         1 RIZ       0.033700
     34 H081       -46.7080   -30.2170     2.4100 h1         1 RIZ       0.086700
     35 H221       -43.2680   -29.4290     6.9790 h5         1 RIZ       0.033100
     36 H091       -44.1670   -28.6910     2.8300 hn         1 RIZ       0.484000
     37 H191       -48.1000   -29.8820     7.7960 hn         1 RIZ       0.355000
     38 C02        -44.8230   -32.1530     2.7790 c          1 RIZ       0.704000
     39 O01        -44.1130   -32.0040     3.7610 o          1 RIZ      -0.723500
     40 O24        -45.4300   -33.1890     2.5480 o          1 RIZ      -0.723500
@<TRIPOS>BOND
     1     1     2 ar  
     2     1     3 ar  
     3     1    22 1   
     4     2     6 ar  
     5     2    23 1   
     6     3     4 ar  
     7     3    17 1   
     8     4     5 ar  
     9     4    24 1   
    10     5     6 ar  
    11     5    19 1   
    12     6     7 1   
    13     7     8 ar  
    14     7     9 ar  
    15     8    18 1   
    16     8    21 ar  
    17     9    19 1   
    18     9    20 ar  
    19    10    11 1   
    20    10    15 1   
    21    10    25 1   
    22    10    38 1   
    23    11    12 1   
    24    11    26 1   
    25    11    27 1   
    26    12    13 1   
    27    12    28 1   
    28    12    29 1   
    29    13    14 1   
    30    13    30 1   
    31    13    31 1   
    32    14    15 1   
    33    14    32 1   
    34    14    33 1   
    35    15    18 1   
    36    15    34 1   
    37    16    20 ar  
    38    16    21 ar  
    39    16    35 1   
    40    18    36 1   
    41    19    37 1   
    42    38    39 1   
    43    38    40 1   
@<TRIPOS>SUBSTRUCTURE
     1 RIZ         1 TEMP              0 ****  ****    0 ROOT
