@<TRIPOS>MOLECULE
RJ1
   27    27     1     0     0
SMALL
bcc


@<TRIPOS>ATOM
      1 C1           2.3420     0.1790     0.0170 ca         1 RJ1      -0.163300
      2 C2           2.4850     1.5470     0.1800 ca         1 RJ1      -0.116000
      3 C3           1.3420     2.3250     0.2610 ca         1 RJ1      -0.101000
      4 C4           0.0920     1.7430     0.1810 ca         1 RJ1      -0.016600
      5 C5          -0.0770     0.3560     0.0160 ca         1 RJ1       0.205600
      6 C6           1.0890    -0.4110    -0.0690 ca         1 RJ1      -0.125000
      7 CL7         -1.2960     2.7730     0.2920 cl         1 RJ1      -0.101400
      8 C8           3.5450    -0.7020    -0.1220 c3         1 RJ1       0.721200
      9 F9           3.4080    -1.8530     0.5490 f          1 RJ1      -0.235300
     10 F10          3.7690    -1.0330    -1.4030 f          1 RJ1      -0.235300
     11 F11          4.6600    -0.1180     0.3270 f          1 RJ1      -0.235300
     12 N12         -1.3550    -0.1570    -0.0390 nu         1 RJ1      -0.739600
     13 C13         -1.7300    -1.4570    -0.2440 c2         1 RJ1       0.870100
     14 N14         -3.1040    -1.6800    -0.1820 nu         1 RJ1      -0.878200
     15 C15         -4.1370    -0.8050     0.1020 c2         1 RJ1       0.848100
     16 N16         -5.3590    -1.4100     0.1010 nv         1 RJ1      -0.968800
     17 N17         -0.9010    -2.3980    -0.4800 n2         1 RJ1      -0.890100
     18 N18         -3.9040     0.4400     0.2810 n2         1 RJ1      -0.921100
     19 H2           3.4540     2.0210     0.2470 ha         1 RJ1       0.152000
     20 H3           1.4250     3.3950     0.3870 ha         1 RJ1       0.149000
     21 H6           0.9780    -1.4760    -0.2030 ha         1 RJ1       0.194000
     22 HN12        -2.1570     0.4780     0.1130 hn         1 RJ1       0.516800
     23 HN14        -3.3710    -2.6240    -0.4120 hn         1 RJ1       0.441800
     24 HN16        -5.4130    -2.3900     0.3280 hn         1 RJ1       0.415800
     25 HN1A        -6.1200    -0.8730     0.4830 hn         1 RJ1       0.415800
     26 HN17        -1.3680    -3.2900    -0.5920 hn         1 RJ1       0.388400
     27 HN18        -4.7360     0.9650     0.5120 hn         1 RJ1       0.408400
@<TRIPOS>BOND
     1     1     2 ar  
     2     1     6 ar  
     3     1     8 1   
     4     2     3 ar  
     5     2    19 1   
     6     3     4 ar  
     7     3    20 1   
     8     4     5 ar  
     9     4     7 1   
    10     5     6 ar  
    11     5    12 1   
    12     6    21 1   
    13     8     9 1   
    14     8    10 1   
    15     8    11 1   
    16    12    13 1   
    17    12    22 1   
    18    13    14 1   
    19    13    17 2   
    20    14    15 1   
    21    14    23 1   
    22    15    16 1   
    23    15    18 2   
    24    16    24 1   
    25    16    25 1   
    26    17    26 1   
    27    18    27 1   
@<TRIPOS>SUBSTRUCTURE
     1 RJ1         1 TEMP              0 ****  ****    0 ROOT
