@<TRIPOS>MOLECULE
RJ1
   27    27     1     0     0
SMALL
No Charge or Current Charge


@<TRIPOS>ATOM
      1 C1           2.4050     0.1240     0.0760 ca         1 RJ1      -0.163300
      2 C2           2.4070     1.5000    -0.2370 ca         1 RJ1      -0.098000
      3 C3           1.2020     2.2190    -0.2940 ca         1 RJ1      -0.083000
      4 C4          -0.0210     1.5730    -0.0490 ca         1 RJ1       0.075000
      5 C5          -0.0470     0.1900     0.2470 ca         1 RJ1       0.344000
      6 C6           1.1670    -0.5190     0.3130 ca         1 RJ1      -0.107000
      7 Cl7         -1.5150     2.5150    -0.1200 cl         1 RJ1      -0.193000
      8 C8           3.7180    -0.6670     0.1350 c3         1 RJ1       0.357300
      9 F9           3.6570    -1.7040     1.0010 f          1 RJ1      -0.114000
     10 F10          4.0360    -1.1800    -1.0750 f          1 RJ1      -0.114000
     11 F11          4.7630     0.0990     0.5260 f          1 RJ1      -0.114000
     12 N12         -1.2560    -0.4560     0.5060 nu         1 RJ1      -0.933200
     13 C13         -1.8290    -1.4800    -0.0850 c2         1 RJ1       0.870100
     14 N14         -3.0710    -1.1220    -0.3090 nu         1 RJ1      -0.933400
     15 C15         -3.9900    -1.0390     0.5910 c2         1 RJ1       0.848100
     16 N16         -5.0000    -1.4090    -0.1340 nv         1 RJ1      -1.079200
     17 N17         -1.2130    -2.1680    -0.9280 n2         1 RJ1      -0.890100
     18 N18         -4.0170     0.0100     1.2510 n2         1 RJ1      -0.921100
     19 H2           3.3430     2.0190    -0.4370 ha         1 RJ1       0.134000
     20 H3           1.2140     3.2810    -0.5290 ha         1 RJ1       0.131000
     21 H6           1.1360    -1.5800     0.5460 ha         1 RJ1       0.176000
     22 HN12        -2.0440     0.1720     0.6620 hn         1 RJ1       0.572000
     23 HN14        -3.4930    -1.5940    -1.0820 hn         1 RJ1       0.497000
     24 HN16        -5.5760    -2.0760     0.3670 hn         1 RJ1       0.471000
     25 HN1A        -5.5380    -0.6030    -0.4230 hn         1 RJ1       0.471000
     26 HN17        -1.9000    -2.6880    -1.4800 hn         1 RJ1       0.388400
     27 HN18        -4.9780     0.1290     1.5930 hn         1 RJ1       0.408400
@<TRIPOS>BOND
     1     1     2 ar  
     2     1     6 ar  
     3     1     8 1   
     4     2     3 ar  
     5     2    19 1   
     6     3     4 ar  
     7     3    20 1   
     8     4     5 ar  
     9     4     7 1   
    10     5     6 ar  
    11     5    12 1   
    12     6    21 1   
    13     8     9 1   
    14     8    10 1   
    15     8    11 1   
    16    12    13 1   
    17    12    22 1   
    18    13    14 1   
    19    13    17 2   
    20    14    15 1   
    21    14    23 1   
    22    15    16 1   
    23    15    18 2   
    24    16    24 1   
    25    16    25 1   
    26    17    26 1   
    27    18    27 1   
@<TRIPOS>SUBSTRUCTURE
     1 RJ1         1 TEMP              0 ****  ****    0 ROOT
