@<TRIPOS>MOLECULE
RJ2
   38    41     1     0     0
SMALL
No Charge or Current Charge


@<TRIPOS>ATOM
      1 C1          39.8950     2.2140     7.7770 c6         1 RJ2       0.138800
      2 N1          41.1670     3.3320     9.6950 nh         1 RJ2      -0.767300
      3 O1          44.0620     6.1030    17.6560 os         1 RJ2      -0.171200
      4 C2          40.0850     3.4900     8.6620 c6         1 RJ2       0.173800
      5 N2          39.7320     0.9690     8.5810 n7         1 RJ2      -0.839400
      6 C3          41.1000     2.0350    10.4450 c6         1 RJ2       0.173800
      7 N3          42.0940     5.4340     9.3780 nb         1 RJ2      -0.742000
      8 C4          40.8830     0.7980     9.5130 c6         1 RJ2       0.138800
      9 C5          41.7990     4.4610    10.2570 ca         1 RJ2       0.611900
     10 C6          42.1050     4.5610    11.6280 ca         1 RJ2      -0.224000
     11 C7          42.7450     5.7130    12.1340 cp         1 RJ2       0.044000
     12 C8          43.0440     6.7200    11.1910 ca         1 RJ2      -0.212000
     13 C9          42.7050     6.5410     9.8430 ca         1 RJ2       0.382900
     14 C10         43.0850     5.8590    13.5860 cp         1 RJ2      -0.067000
     15 C11         43.0700     7.1410    14.2200 ca         1 RJ2      -0.076000
     16 C12         43.3880     7.2930    15.5890 ca         1 RJ2      -0.106000
     17 C13         43.7230     6.1470    16.3180 ca         1 RJ2       0.062100
     18 C14         44.3110     4.7510    17.9130 cc         1 RJ2      -0.069900
     19 C15         44.1230     4.0140    16.7580 cd         1 RJ2      -0.235200
     20 C16         43.7410     4.9170    15.7230 ca         1 RJ2      -0.116800
     21 C17         43.4320     4.7230    14.3720 ca         1 RJ2      -0.043000
     22 H1          39.0200     2.3540     7.1250 h1         1 RJ2       0.061950
     23 H2          40.7730     2.1100     7.1220 h1         1 RJ2       0.061950
     24 H3          40.2930     4.3310     7.9860 h1         1 RJ2       0.049450
     25 H4          39.1320     3.7140     9.1640 h1         1 RJ2       0.049450
     26 H5          38.8770     1.0640     9.1440 hn         1 RJ2       0.403000
     27 H7          42.0320     1.8700    11.0050 h1         1 RJ2       0.049450
     28 H8          40.2800     2.0750    11.1780 h1         1 RJ2       0.049450
     29 H9          40.7310    -0.0990    10.1310 h1         1 RJ2       0.061950
     30 H10         41.8000     0.6360     8.9270 h1         1 RJ2       0.061950
     31 H11         41.8260     3.7640    12.3050 ha         1 RJ2       0.122000
     32 H12         43.5480     7.6330    11.4900 ha         1 RJ2       0.126000
     33 H13         42.9360     7.3120     9.1090 h4         1 RJ2       0.015100
     34 H14         42.7950     8.0240    13.6500 ha         1 RJ2       0.121000
     35 H15         43.3720     8.2700    16.0640 ha         1 RJ2       0.133000
     36 H16         44.6010     4.4690    18.9220 h4         1 RJ2       0.239000
     37 H17         44.2470     2.9370    16.6670 ha         1 RJ2       0.215000
     38 H18         43.4730     3.7270    13.9390 ha         1 RJ2       0.123000
@<TRIPOS>BOND
     1     1     4 1   
     2     1     5 1   
     3     1    22 1   
     4     1    23 1   
     5     2     4 1   
     6     2     6 1   
     7     2     9 1   
     8     3    17 1   
     9     3    18 1   
    10     4    24 1   
    11     4    25 1   
    12     5     8 1   
    13     5    26 1   
    14     6     8 1   
    15     6    27 1   
    16     6    28 1   
    17     7     9 ar  
    18     7    13 ar  
    19     8    29 1   
    20     8    30 1   
    21     9    10 ar  
    22    10    11 ar  
    23    10    31 1   
    24    11    12 ar  
    25    11    14 1   
    26    12    13 ar  
    27    12    32 1   
    28    13    33 1   
    29    14    15 ar  
    30    14    21 ar  
    31    15    16 ar  
    32    15    34 1   
    33    16    17 ar  
    34    16    35 1   
    35    17    20 ar  
    36    18    19 2   
    37    18    36 1   
    38    19    20 1   
    39    19    37 1   
    40    20    21 ar  
    41    21    38 1   
@<TRIPOS>SUBSTRUCTURE
     1 RJ2         1 TEMP              0 ****  ****    0 ROOT
