@<TRIPOS>MOLECULE
RJ2
   38    41     1     0     0
SMALL
abcg2


@<TRIPOS>ATOM
      1 C1          40.2600     2.1430     7.7850 c6         1 RJ2       0.138800
      2 N1          41.1730     3.3260     9.7350 nh         1 RJ2      -0.767300
      3 O1          44.0740     5.9840    17.5180 os         1 RJ2      -0.171200
      4 C2          40.3800     3.4680     8.5210 c6         1 RJ2       0.173800
      5 N2          39.7790     1.0540     8.6150 n7         1 RJ2      -0.839400
      6 C3          40.7650     2.2290    10.5930 c6         1 RJ2       0.173800
      7 N3          41.9740     5.4730     9.4570 nb         1 RJ2      -0.742000
      8 C4          40.6120     0.9370     9.7950 c6         1 RJ2       0.138800
      9 C5          41.7400     4.4520    10.2840 ca         1 RJ2       0.611900
     10 C6          42.0720     4.5380    11.6490 ca         1 RJ2      -0.224000
     11 C7          42.6850     5.6820    12.1380 cp         1 RJ2       0.044000
     12 C8          42.9420     6.7290    11.2500 ca         1 RJ2      -0.212000
     13 C9          42.5570     6.5630     9.9350 ca         1 RJ2       0.382900
     14 C10         43.0430     5.7900    13.5670 cp         1 RJ2      -0.067000
     15 C11         42.8530     7.0100    14.2440 ca         1 RJ2      -0.076000
     16 C12         43.1680     7.1650    15.5820 ca         1 RJ2      -0.106000
     17 C13         43.6910     6.0570    16.2260 ca         1 RJ2       0.062100
     18 C14         44.5280     4.7180    17.7170 cc         1 RJ2      -0.069900
     19 C15         44.4510     3.9700    16.5990 cd         1 RJ2      -0.235200
     20 C16         43.8970     4.8310    15.5910 ca         1 RJ2      -0.116800
     21 C17         43.5670     4.6950    14.2450 ca         1 RJ2      -0.043000
     22 H1          39.5920     2.2730     6.9320 h1         1 RJ2       0.061950
     23 H2          41.2390     1.8610     7.3850 h1         1 RJ2       0.061950
     24 H3          40.8460     4.2070     7.8750 h1         1 RJ2       0.049450
     25 H4          39.3740     3.8390     8.7680 h1         1 RJ2       0.049450
     26 H5          38.8240     1.2460     8.8960 hn         1 RJ2       0.403000
     27 H7          41.5220     2.0540    11.3570 h1         1 RJ2       0.049450
     28 H8          39.8230     2.4640    11.1100 h1         1 RJ2       0.049450
     29 H9          40.2070     0.1670    10.4540 h1         1 RJ2       0.061950
     30 H10         41.6030     0.5990     9.4790 h1         1 RJ2       0.061950
     31 H11         41.8230     3.7440    12.3380 ha         1 RJ2       0.122000
     32 H12         43.4330     7.6390    11.5660 ha         1 RJ2       0.126000
     33 H13         42.7320     7.3580     9.2170 h4         1 RJ2       0.015100
     34 H14         42.4280     7.8500    13.7100 ha         1 RJ2       0.121000
     35 H15         43.0080     8.1050    16.0930 ha         1 RJ2       0.133000
     36 H16         44.8750     4.4920    18.7130 h4         1 RJ2       0.239000
     37 H17         44.7460     2.9380    16.4990 ha         1 RJ2       0.215000
     38 H18         43.7370     3.7570    13.7310 ha         1 RJ2       0.123000
@<TRIPOS>BOND
     1     1     4 1   
     2     1     5 1   
     3     1    22 1   
     4     1    23 1   
     5     2     4 1   
     6     2     6 1   
     7     2     9 1   
     8     3    17 1   
     9     3    18 1   
    10     4    24 1   
    11     4    25 1   
    12     5     8 1   
    13     5    26 1   
    14     6     8 1   
    15     6    27 1   
    16     6    28 1   
    17     7     9 ar  
    18     7    13 ar  
    19     8    29 1   
    20     8    30 1   
    21     9    10 ar  
    22    10    11 ar  
    23    10    31 1   
    24    11    12 ar  
    25    11    14 1   
    26    12    13 ar  
    27    12    32 1   
    28    13    33 1   
    29    14    15 ar  
    30    14    21 ar  
    31    15    16 ar  
    32    15    34 1   
    33    16    17 ar  
    34    16    35 1   
    35    17    20 ar  
    36    18    19 2   
    37    18    36 1   
    38    19    20 1   
    39    19    37 1   
    40    20    21 ar  
    41    21    38 1   
@<TRIPOS>SUBSTRUCTURE
     1 RJ2         1 TEMP              0 ****  ****    0 ROOT
