@<TRIPOS>MOLECULE
RJ3
   36    38     1     0     0
SMALL
abcg2


@<TRIPOS>ATOM
      1 N1         -16.4540     4.1550    26.5190 nb         1 RJ3      -0.682000
      2 C4         -18.1010     6.3960    26.0390 ca         1 RJ3      -0.037000
      3 C5         -18.5760     5.2660    26.7610 ca         1 RJ3      -0.088000
      4 C6         -20.3230     4.8430    28.4630 c          1 RJ3       0.598100
      5 C7         -21.8170     5.0650    28.6940 c3         1 RJ3      -0.119100
      6 C8         -22.3450     4.3290    29.8930 ca         1 RJ3      -0.049300
      7 C10        -22.9520     4.2730    32.2330 ca         1 RJ3      -0.103000
      8 C13        -22.6760     2.9780    29.7880 ca         1 RJ3      -0.088000
      9 C15        -15.9990     5.1820    25.8390 ca         1 RJ3       0.351900
     10 C17        -16.2340     7.4250    24.8270 ca         1 RJ3      -0.075000
     11 C12        -23.1360     2.2990    30.9060 ca         1 RJ3       0.126000
     12 C11        -23.2800     2.9260    32.1360 ca         1 RJ3      -0.104000
     13 C9         -22.4880     4.9690    31.1220 ca         1 RJ3      -0.090000
     14 O2         -19.5780     4.3710    29.3080 o          1 RJ3      -0.575100
     15 N          -19.9040     5.2550    27.2320 ns         1 RJ3      -0.150000
     16 C14        -17.7340     4.1980    26.9660 ca         1 RJ3       0.302900
     17 C16        -16.7650     6.3380    25.5550 ca         1 RJ3      -0.094000
     18 C3         -18.8570     7.5660    25.7880 ca         1 RJ3      -0.167000
     19 C2         -18.3050     8.6080    25.0880 ca         1 RJ3      -0.041000
     20 C1         -16.9820     8.5540    24.5890 ca         1 RJ3      -0.128600
     21 C          -16.3970     9.7380    23.8190 c          1 RJ3       0.706600
     22 O1         -15.2510     9.5880    23.3290 o          1 RJ3      -0.714000
     23 O          -17.1130    10.7680    23.7430 o          1 RJ3      -0.714000
     24 H1         -21.9650     6.1420    28.8170 hc         1 RJ3       0.066200
     25 H2         -22.3580     4.7730    27.7920 hc         1 RJ3       0.066200
     26 H3         -23.0610     4.7800    33.1830 ha         1 RJ3       0.115000
     27 H4         -22.5760     2.4620    28.8430 ha         1 RJ3       0.130000
     28 H5         -14.9750     5.1300    25.4780 h4         1 RJ3       0.015100
     29 H6         -15.2190     7.3700    24.4560 ha         1 RJ3       0.137000
     30 H7         -23.6420     2.3760    32.9930 ha         1 RJ3       0.124000
     31 H8         -22.2360     6.0190    31.2090 ha         1 RJ3       0.119000
     32 H9         -20.5970     5.6860    26.6390 hn         1 RJ3       0.149000
     33 H10        -18.0840     3.3310    27.5070 h4         1 RJ3       0.020100
     34 H11        -19.8690     7.6500    26.1620 ha         1 RJ3       0.086000
     35 H12        -18.8800     9.5060    24.9070 ha         1 RJ3       0.134000
     36 CL         -23.5480     0.6000    30.7580 cl         1 RJ3      -0.226000
@<TRIPOS>BOND
     1     1     9 ar  
     2     1    16 ar  
     3     2     3 ar  
     4     2    17 ar  
     5     2    18 ar  
     6     3    15 1   
     7     3    16 ar  
     8     4     5 1   
     9     4    14 2   
    10     4    15 1   
    11     5     6 1   
    12     5    24 1   
    13     5    25 1   
    14     6     8 ar  
    15     6    13 ar  
    16     7    12 ar  
    17     7    13 ar  
    18     7    26 1   
    19     8    11 ar  
    20     8    27 1   
    21     9    17 ar  
    22     9    28 1   
    23    10    17 ar  
    24    10    20 ar  
    25    10    29 1   
    26    11    12 ar  
    27    11    36 1   
    28    12    30 1   
    29    13    31 1   
    30    15    32 1   
    31    16    33 1   
    32    18    19 ar  
    33    18    34 1   
    34    19    20 ar  
    35    19    35 1   
    36    20    21 1   
    37    21    22 1   
    38    21    23 1   
@<TRIPOS>SUBSTRUCTURE
     1 RJ3         1 TEMP              0 ****  ****    0 ROOT
