@<TRIPOS>MOLECULE
RJ3
   36    38     1     0     0
SMALL
No Charge or Current Charge


@<TRIPOS>ATOM
      1 N1         -16.5880     3.8570    25.7550 nb         1 RJ3      -0.682000
      2 C4         -18.2010     6.1440    26.2100 ca         1 RJ3      -0.037000
      3 C5         -18.7100     4.8450    26.4570 ca         1 RJ3      -0.088000
      4 C6         -20.7360     3.5930    27.4320 c          1 RJ3       0.598100
      5 C7         -22.1960     3.8800    27.7990 c3         1 RJ3      -0.119100
      6 C8         -22.3350     4.1060    29.3000 ca         1 RJ3      -0.049300
      7 C10        -22.3280     5.6090    31.2250 ca         1 RJ3      -0.103000
      8 C13        -22.5850     3.0200    30.1630 ca         1 RJ3      -0.088000
      9 C15        -16.1140     5.1030    25.5310 ca         1 RJ3       0.351900
     10 C17        -16.3260     7.5380    25.4840 ca         1 RJ3      -0.075000
     11 C12        -22.7060     3.2290    31.5470 ca         1 RJ3       0.126000
     12 C11        -22.5780     4.5220    32.0800 ca         1 RJ3      -0.104000
     13 C9         -22.2060     5.4020    29.8400 ca         1 RJ3      -0.090000
     14 O2         -20.2340     2.4890    27.6080 o          1 RJ3      -0.575100
     15 N          -20.0490     4.6890    26.9240 ns         1 RJ3      -0.150000
     16 C14        -17.8580     3.7390    26.2070 ca         1 RJ3       0.302900
     17 C16        -16.8780     6.2670    25.7410 ca         1 RJ3      -0.094000
     18 C3         -18.9650     7.3120    26.4220 ca         1 RJ3      -0.167000
     19 C2         -18.4130     8.5790    26.1650 ca         1 RJ3      -0.041000
     20 C1         -17.0870     8.7110    25.6930 ca         1 RJ3      -0.128600
     21 C          -16.4960    10.0830    25.4170 c          1 RJ3       0.706600
     22 O1         -15.3440    10.1530    25.0100 o          1 RJ3      -0.714000
     23 O          -17.1910    11.0700    25.6110 o          1 RJ3      -0.714000
     24 H1         -22.5420     4.7770    27.2700 hc         1 RJ3       0.066200
     25 H2         -22.8100     3.0230    27.4970 hc         1 RJ3       0.066200
     26 H3         -22.2270     6.6120    31.6360 ha         1 RJ3       0.115000
     27 H4         -22.6830     2.0140    29.7630 ha         1 RJ3       0.130000
     28 H5         -15.0880     5.1680    25.1680 h4         1 RJ3       0.015100
     29 H6         -15.3020     7.6110    25.1210 ha         1 RJ3       0.137000
     30 H7         -22.6720     4.6800    33.1510 ha         1 RJ3       0.124000
     31 H8         -22.0110     6.2500    29.1870 ha         1 RJ3       0.119000
     32 H9         -20.6000     5.5360    26.8750 hn         1 RJ3       0.149000
     33 H10        -18.1920     2.7150    26.3510 h4         1 RJ3       0.020100
     34 H11        -19.9860     7.2590    26.7870 ha         1 RJ3       0.086000
     35 H12        -19.0240     9.4630    26.3370 ha         1 RJ3       0.134000
     36 Cl         -23.0170     1.8670    32.6160 cl         1 RJ3      -0.226000
@<TRIPOS>BOND
     1     1     9 ar  
     2     1    16 ar  
     3     2     3 ar  
     4     2    17 ar  
     5     2    18 ar  
     6     3    15 1   
     7     3    16 ar  
     8     4     5 1   
     9     4    14 2   
    10     4    15 1   
    11     5     6 1   
    12     5    24 1   
    13     5    25 1   
    14     6     8 ar  
    15     6    13 ar  
    16     7    12 ar  
    17     7    13 ar  
    18     7    26 1   
    19     8    11 ar  
    20     8    27 1   
    21     9    17 ar  
    22     9    28 1   
    23    10    17 ar  
    24    10    20 ar  
    25    10    29 1   
    26    11    12 ar  
    27    11    36 1   
    28    12    30 1   
    29    13    31 1   
    30    15    32 1   
    31    16    33 1   
    32    18    19 ar  
    33    18    34 1   
    34    19    20 ar  
    35    19    35 1   
    36    20    21 1   
    37    21    22 1   
    38    21    23 1   
@<TRIPOS>SUBSTRUCTURE
     1 RJ3         1 TEMP              0 ****  ****    0 ROOT
