@<TRIPOS>MOLECULE
RJ4
   29    32     1     0     0
SMALL
No Charge or Current Charge


@<TRIPOS>ATOM
      1 C10          0.6790    -1.4500    -0.3130 c6         1 RJ4      -0.006100
      2 N12          3.3010    -1.3510    -0.2970 na         1 RJ4      -0.287500
      3 C13          4.2130    -0.3720     0.0580 cc         1 RJ4       0.390400
      4 C15          2.2520     0.4320     0.3570 cd         1 RJ4       0.204300
      5 C04         -2.0540     1.3040    -0.6790 c5         1 RJ4       0.109000
      6 C05         -0.6680     0.7000    -1.0710 c5         1 RJ4      -0.105700
      7 C06          0.4400     1.7690    -0.7390 c5         1 RJ4      -0.094400
      8 C07          1.0060     1.2730     0.6360 c5         1 RJ4       0.144000
      9 C09         -0.4430    -0.4010     0.0030 c5         1 RJ4       0.152000
     10 C11          2.0400    -0.8300    -0.1100 cc         1 RJ4      -0.195300
     11 C16         -1.8690    -0.9880     0.2410 c5         1 RJ4       0.103000
     12 N03         -2.7620     0.1210    -0.1640 n          1 RJ4      -0.423800
     13 N14          3.5920     0.7350     0.4590 nd         1 RJ4      -0.651000
     14 O01         -4.7260    -0.8530     0.5480 o          1 RJ4      -0.604100
     15 O08         -0.0490     0.4090     1.1370 os         1 RJ4      -0.432000
     16 H1           0.5580    -2.3190     0.3490 hc         1 RJ4       0.062200
     17 H2           0.5610    -1.8240    -1.3390 hc         1 RJ4       0.062200
     18 H3           3.5400    -2.2780    -0.6300 hn         1 RJ4       0.353000
     19 H4           5.2840    -0.5270    -0.0000 h5         1 RJ4       0.057100
     20 H5          -4.6430     1.0520    -0.2420 h5         1 RJ4       0.010200
     21 H6          -1.9780     2.0640     0.1110 h1         1 RJ4       0.052200
     22 H7          -2.5640     1.7520    -1.5420 h1         1 RJ4       0.052200
     23 H8          -0.6440     0.3190    -2.0990 hc         1 RJ4       0.071700
     24 H9           1.2190     1.7970    -1.5100 hc         1 RJ4       0.062700
     25 H10          0.0440     2.7880    -0.6700 hc         1 RJ4       0.062700
     26 H11          1.2320     2.0800     1.3460 h1         1 RJ4       0.104700
     27 H12         -2.0450    -1.8700    -0.3880 h1         1 RJ4       0.070200
     28 H13         -2.0180    -1.2780     1.2890 h1         1 RJ4       0.070200
     29 C02         -4.1450     0.1120     0.0620 c          1 RJ4       0.604900
@<TRIPOS>BOND
     1     1     9 1   
     2     1    10 1   
     3     1    16 1   
     4     1    17 1   
     5     2     3 1   
     6     2    10 1   
     7     2    18 1   
     8     3    13 2   
     9     3    19 1   
    10     4     8 1   
    11     4    10 2   
    12     4    13 1   
    13     5     6 1   
    14     5    12 1   
    15     5    21 1   
    16     5    22 1   
    17     6     7 1   
    18     6     9 1   
    19     6    23 1   
    20     7     8 1   
    21     7    24 1   
    22     7    25 1   
    23     8    15 1   
    24     8    26 1   
    25     9    11 1   
    26     9    15 1   
    27    11    12 1   
    28    11    27 1   
    29    11    28 1   
    30    12    29 1   
    31    14    29 2   
    32    20    29 1   
@<TRIPOS>SUBSTRUCTURE
     1 RJ4         1 TEMP              0 ****  ****    0 ROOT
