@<TRIPOS>MOLECULE
RJ4
   29    32     1     0     0
SMALL
abcg2


@<TRIPOS>ATOM
      1 C10          0.5320    -1.4090    -0.1740 c6         1 RJ4      -0.006100
      2 N12          3.0950    -1.4230    -0.5530 na         1 RJ4      -0.287500
      3 C13          4.0630    -0.5040    -0.3310 cc         1 RJ4       0.390400
      4 C15          2.2400     0.3730     0.2930 cd         1 RJ4       0.204300
      5 C04         -2.0250     1.2840    -0.6920 c5         1 RJ4       0.109000
      6 C05         -0.5650     0.8520    -0.8350 c5         1 RJ4      -0.105700
      7 C06          0.4440     1.9370    -0.4210 c5         1 RJ4      -0.094400
      8 C07          1.1530     1.2790     0.7740 c5         1 RJ4       0.144000
      9 C09         -0.4050    -0.2590     0.2340 c5         1 RJ4       0.152000
     10 C11          1.9140    -0.8670    -0.1610 cc         1 RJ4      -0.195300
     11 C16         -1.8130    -0.7620     0.5550 c5         1 RJ4       0.103000
     12 N03         -2.6980     0.0960    -0.2070 n          1 RJ4      -0.423800
     13 N14          3.5780     0.6020     0.1810 nd         1 RJ4      -0.651000
     14 O01         -4.5350    -1.2230    -0.0780 o          1 RJ4      -0.604100
     15 O08          0.1420     0.4460     1.3410 os         1 RJ4      -0.432000
     16 H1           0.4270    -2.2470     0.5240 hc         1 RJ4       0.062200
     17 H2           0.2380    -1.7820    -1.1590 hc         1 RJ4       0.062200
     18 H3           3.2330    -2.3420    -0.9420 hn         1 RJ4       0.353000
     19 H4           5.1000    -0.6970    -0.5570 h5         1 RJ4       0.057100
     20 H5          -4.4520     0.5140    -1.1400 h5         1 RJ4       0.010200
     21 H6          -2.1140     2.0990     0.0340 h1         1 RJ4       0.052200
     22 H7          -2.4630     1.6240    -1.6290 h1         1 RJ4       0.052200
     23 H8          -0.3810     0.4690    -1.8400 hc         1 RJ4       0.071700
     24 H9           1.1430     2.1950    -1.2150 hc         1 RJ4       0.062700
     25 H10         -0.0640     2.8550    -0.1180 hc         1 RJ4       0.062700
     26 H11          1.4910     1.9890     1.5300 h1         1 RJ4       0.104700
     27 H12         -1.9490    -1.8000     0.2470 h1         1 RJ4       0.070200
     28 H13         -2.0120    -0.7100     1.6290 h1         1 RJ4       0.070200
     29 C02         -3.9630    -0.2240    -0.4860 c          1 RJ4       0.604900
@<TRIPOS>BOND
     1     1     9 1   
     2     1    10 1   
     3     1    16 1   
     4     1    17 1   
     5     2     3 1   
     6     2    10 1   
     7     2    18 1   
     8     3    13 2   
     9     3    19 1   
    10     4     8 1   
    11     4    10 2   
    12     4    13 1   
    13     5     6 1   
    14     5    12 1   
    15     5    21 1   
    16     5    22 1   
    17     6     7 1   
    18     6     9 1   
    19     6    23 1   
    20     7     8 1   
    21     7    24 1   
    22     7    25 1   
    23     8    15 1   
    24     8    26 1   
    25     9    11 1   
    26     9    15 1   
    27    11    12 1   
    28    11    27 1   
    29    11    28 1   
    30    12    29 1   
    31    14    29 2   
    32    20    29 1   
@<TRIPOS>SUBSTRUCTURE
     1 RJ4         1 TEMP              0 ****  ****    0 ROOT
