@<TRIPOS>MOLECULE
RJ5
   27    28     1     0     0
SMALL
bcc


@<TRIPOS>ATOM
      1 C1          44.7830     4.1580    18.0450 c3         1 RJ5       0.125700
      2 O1          44.1610     5.3200    17.5330 os         1 RJ5      -0.316900
      3 C2          43.7520     5.3240    16.2540 ca         1 RJ5       0.150100
      4 C3          43.1340     6.4930    15.8030 ca         1 RJ5      -0.194500
      5 C4          42.6880     6.5880    14.5010 ca         1 RJ5      -0.072500
      6 C5          42.8320     5.5260    13.6020 cp         1 RJ5      -0.086000
      7 C6          43.4480     4.3670    14.0670 ca         1 RJ5      -0.072500
      8 C7          43.9080     4.2560    15.3720 ca         1 RJ5      -0.194500
      9 C8          42.3490     5.6360    12.2130 cp         1 RJ5       0.056000
     10 C9          41.8510     4.5350    11.5380 ca         1 RJ5      -0.310300
     11 C10         41.4070     4.6760    10.2130 ca         1 RJ5       0.658200
     12 N1          40.8680     3.6160     9.5440 nv         1 RJ5      -0.944500
     13 N2          41.4420     5.8430     9.5720 nb         1 RJ5      -0.743000
     14 C11         41.9160     6.8960    10.2320 ca         1 RJ5       0.446200
     15 C12         42.3770     6.8610    11.5310 ca         1 RJ5      -0.298300
     16 H1          45.0290     4.3720    19.0820 h1         1 RJ5       0.041700
     17 H2          44.1180     3.2910    18.0140 h1         1 RJ5       0.041700
     18 H3          45.7030     3.9160    17.5080 h1         1 RJ5       0.041700
     19 H4          43.0020     7.3230    16.4860 ha         1 RJ5       0.141000
     20 H5          42.1990     7.5010    14.1870 ha         1 RJ5       0.133500
     21 H6          43.6000     3.5290    13.3980 ha         1 RJ5       0.133500
     22 H7          44.3890     3.3370    15.6770 ha         1 RJ5       0.141000
     23 H8          41.7770     3.5690    12.0220 ha         1 RJ5       0.138000
     24 H9          40.8160     3.7020     8.5420 hn         1 RJ5       0.413300
     25 H10         41.1060     2.6920     9.8650 hn         1 RJ5       0.413300
     26 H11         41.9350     7.8300     9.6810 h4         1 RJ5       0.015100
     27 H12         42.7720     7.7570    11.9880 ha         1 RJ5       0.142000
@<TRIPOS>BOND
     1     1     2 1   
     2     1    16 1   
     3     1    17 1   
     4     1    18 1   
     5     2     3 1   
     6     3     4 ar  
     7     3     8 ar  
     8     4     5 ar  
     9     4    19 1   
    10     5     6 ar  
    11     5    20 1   
    12     6     7 ar  
    13     6     9 1   
    14     7     8 ar  
    15     7    21 1   
    16     8    22 1   
    17     9    10 ar  
    18     9    15 ar  
    19    10    11 ar  
    20    10    23 1   
    21    11    12 1   
    22    11    13 ar  
    23    12    24 1   
    24    12    25 1   
    25    13    14 ar  
    26    14    15 ar  
    27    14    26 1   
    28    15    27 1   
@<TRIPOS>SUBSTRUCTURE
     1 RJ5         1 TEMP              0 ****  ****    0 ROOT
