@<TRIPOS>MOLECULE
RJ5
   27    28     1     0     0
SMALL
No Charge or Current Charge


@<TRIPOS>ATOM
      1 C1          44.8370     4.1500    18.1680 c3         1 RJ5       0.148900
      2 O1          44.2050     5.3110    17.5980 os         1 RJ5      -0.340100
      3 C2          43.7670     5.3430    16.2900 ca         1 RJ5       0.150100
      4 C3          43.1640     6.5210    15.8280 ca         1 RJ5      -0.176500
      5 C4          42.6980     6.6140    14.5050 ca         1 RJ5      -0.054500
      6 C5          42.8250     5.5240    13.6070 cp         1 RJ5      -0.086000
      7 C6          43.4370     4.3390    14.0900 ca         1 RJ5      -0.054500
      8 C7          43.9040     4.2460    15.4130 ca         1 RJ5      -0.176500
      9 C8          42.3290     5.6210    12.1970 cp         1 RJ5       0.056000
     10 C9          41.8240     4.5000    11.5000 ca         1 RJ5      -0.227000
     11 C10         41.3740     4.6600    10.1880 ca         1 RJ5       0.592900
     12 N1          40.8830     3.6630     9.4490 nv         1 RJ5      -1.054900
     13 N2          41.3830     5.7980     9.5110 nb         1 RJ5      -0.743000
     14 C11         41.8620     6.8830    10.1570 ca         1 RJ5       0.380900
     15 C12         42.3360     6.8390    11.4790 ca         1 RJ5      -0.215000
     16 H1          45.1040     4.3390    19.2150 h1         1 RJ5       0.041700
     17 H2          44.1610     3.2860    18.1400 h1         1 RJ5       0.041700
     18 H3          45.7550     3.8980    17.6220 h1         1 RJ5       0.041700
     19 H4          43.0530     7.3680    16.5000 ha         1 RJ5       0.123000
     20 H5          42.2230     7.5360    14.1800 ha         1 RJ5       0.115500
     21 H6          43.5650     3.4860    13.4290 ha         1 RJ5       0.115500
     22 H7          44.3690     3.3200    15.7360 ha         1 RJ5       0.123000
     23 H8          41.7650     3.5270    11.9750 ha         1 RJ5       0.120000
     24 H9          40.8170     3.8600     8.4580 hn         1 RJ5       0.468500
     25 H10         41.1310     2.7150     9.7090 hn         1 RJ5       0.468500
     26 H11         41.8710     7.8170     9.5960 h4         1 RJ5       0.015100
     27 H12         42.7200     7.7490    11.9290 ha         1 RJ5       0.124000
@<TRIPOS>BOND
     1     1     2 1   
     2     1    16 1   
     3     1    17 1   
     4     1    18 1   
     5     2     3 1   
     6     3     4 ar  
     7     3     8 ar  
     8     4     5 ar  
     9     4    19 1   
    10     5     6 ar  
    11     5    20 1   
    12     6     7 ar  
    13     6     9 1   
    14     7     8 ar  
    15     7    21 1   
    16     8    22 1   
    17     9    10 ar  
    18     9    15 ar  
    19    10    11 ar  
    20    10    23 1   
    21    11    12 1   
    22    11    13 ar  
    23    12    24 1   
    24    12    25 1   
    25    13    14 ar  
    26    14    15 ar  
    27    14    26 1   
    28    15    27 1   
@<TRIPOS>SUBSTRUCTURE
     1 RJ5         1 TEMP              0 ****  ****    0 ROOT
