@<TRIPOS>MOLECULE
RJ6
   32    32     1     0     0
SMALL
No Charge or Current Charge


@<TRIPOS>ATOM
      1 C1           2.5110     0.8140    -0.3500 ca         1 RJ6       0.207100
      2 C2           2.9280    -0.4260     0.1720 ca         1 RJ6      -0.317000
      3 C3           1.9810    -1.4440     0.3990 ca         1 RJ6       0.207100
      4 C4           0.6320    -1.2130     0.1090 ca         1 RJ6      -0.244500
      5 C5           0.2200     0.0210    -0.4000 ca         1 RJ6       0.379000
      6 C6           1.1580     1.0270    -0.6360 ca         1 RJ6      -0.244500
      7 O7           3.3880     1.8480    -0.5990 os         1 RJ6      -0.341600
      8 C8           4.8000     1.7390    -0.3430 c3         1 RJ6       0.149900
      9 O9           2.3250    -2.6810     0.9000 os         1 RJ6      -0.341600
     10 C10          3.6810    -3.0280     1.2310 c3         1 RJ6       0.149900
     11 N11         -1.1110     0.2540    -0.6960 nu         1 RJ6      -1.007200
     12 C12         -2.1950     0.1310     0.0550 c2         1 RJ6       0.850100
     13 N13         -3.2580     0.3340    -0.6870 nu         1 RJ6      -0.884400
     14 C14         -4.4780     0.2310    -0.2730 c2         1 RJ6       0.810100
     15 N15         -4.9810    -0.4710    -1.2600 nv         1 RJ6      -1.083200
     16 N16         -2.1820    -0.3030     1.2300 n2         1 RJ6      -0.797100
     17 N17         -5.0470     1.2260     0.2150 n2         1 RJ6      -0.814100
     18 H2           3.9750    -0.5980     0.3960 ha         1 RJ6       0.123000
     19 H4          -0.0920    -2.0060     0.2690 ha         1 RJ6       0.136000
     20 H6           0.8420     1.9850    -1.0370 ha         1 RJ6       0.136000
     21 H8           5.3070     2.6740    -0.6120 h1         1 RJ6       0.042033
     22 H8A          4.9890     1.5430     0.7200 h1         1 RJ6       0.042033
     23 H8B          5.2430     0.9290    -0.9370 h1         1 RJ6       0.042033
     24 H10          4.3270    -2.9630     0.3470 h1         1 RJ6       0.042033
     25 H10A         4.0760    -2.3610     2.0070 h1         1 RJ6       0.042033
     26 H10B         3.7280    -4.0560     1.6110 h1         1 RJ6       0.042033
     27 HN11        -1.2510     1.0020    -1.3630 hn         1 RJ6       0.500000
     28 HN13        -3.2080    -0.1950    -1.5320 hn         1 RJ6       0.505000
     29 HN15        -5.2630    -1.3930    -0.9430 hn         1 RJ6       0.455500
     30 HN1A        -5.7400     0.0150    -1.7210 hn         1 RJ6       0.455500
     31 HN16        -1.1940    -0.4280     1.4600 hn         1 RJ6       0.381400
     32 HN17        -6.0570     1.0830     0.1280 hn         1 RJ6       0.375400
@<TRIPOS>BOND
     1     1     2 ar  
     2     1     6 ar  
     3     1     7 1   
     4     2     3 ar  
     5     2    18 1   
     6     3     4 ar  
     7     3     9 1   
     8     4     5 ar  
     9     4    19 1   
    10     5     6 ar  
    11     5    11 1   
    12     6    20 1   
    13     7     8 1   
    14     8    21 1   
    15     8    22 1   
    16     8    23 1   
    17     9    10 1   
    18    10    24 1   
    19    10    25 1   
    20    10    26 1   
    21    11    12 1   
    22    11    27 1   
    23    12    13 1   
    24    12    16 2   
    25    13    14 1   
    26    13    28 1   
    27    14    15 1   
    28    14    17 2   
    29    15    29 1   
    30    15    30 1   
    31    16    31 1   
    32    17    32 1   
@<TRIPOS>SUBSTRUCTURE
     1 RJ6         1 TEMP              0 ****  ****    0 ROOT
