@<TRIPOS>MOLECULE
RJ6
   32    32     1     0     0
SMALL
bcc


@<TRIPOS>ATOM
      1 C1           2.4730     0.8980    -0.2830 ca         1 RJ6       0.207100
      2 C2           2.5320    -0.4690    -0.0100 ca         1 RJ6      -0.335000
      3 C3           1.3800    -1.1070     0.4490 ca         1 RJ6       0.207100
      4 C4           0.1910    -0.4060     0.6330 ca         1 RJ6      -0.262500
      5 C5           0.1460     0.9530     0.3290 ca         1 RJ6       0.240600
      6 C6           1.2880     1.6080    -0.1270 ca         1 RJ6      -0.262500
      7 O7           3.5260     1.6080    -0.7270 os         1 RJ6      -0.318400
      8 C8           4.7530     0.9440    -0.9550 c3         1 RJ6       0.126700
      9 O9           1.3370    -2.4140     0.7620 os         1 RJ6      -0.318400
     10 C10          2.5130    -3.1890     0.6320 c3         1 RJ6       0.126700
     11 N11         -1.0130     1.7060     0.5060 nu         1 RJ6      -0.813600
     12 C12         -2.3360     1.3010     0.4140 c2         1 RJ6       0.850100
     13 N13         -2.5120     0.2460    -0.4560 nu         1 RJ6      -0.829200
     14 C14         -3.5790    -0.6330    -0.5640 c2         1 RJ6       0.810100
     15 N15         -3.2550    -1.6890    -1.3890 nv         1 RJ6      -0.972800
     16 N16         -3.2980     1.8800     1.0120 n2         1 RJ6      -0.797100
     17 N17         -4.7050    -0.4170    -0.0130 n2         1 RJ6      -0.814100
     18 H2           3.4490    -1.0220    -0.1470 ha         1 RJ6       0.141000
     19 H4          -0.6680    -0.9220     1.0400 ha         1 RJ6       0.154000
     20 H6           1.2560     2.6620    -0.3720 ha         1 RJ6       0.154000
     21 H8           5.4430     1.6940    -1.3340 h1         1 RJ6       0.042033
     22 H8A          5.1660     0.5200    -0.0360 h1         1 RJ6       0.042033
     23 H8B          4.6550     0.1490    -1.6980 h1         1 RJ6       0.042033
     24 H10          2.8630    -3.2300    -0.4020 h1         1 RJ6       0.042033
     25 H10A         3.3220    -2.8140     1.2640 h1         1 RJ6       0.042033
     26 H10B         2.2550    -4.1950     0.9540 h1         1 RJ6       0.042033
     27 HN11        -0.8810     2.6810     0.7240 hn         1 RJ6       0.444800
     28 HN13        -1.7410     0.0610    -1.0790 hn         1 RJ6       0.449800
     29 HN15        -2.3160    -2.0540    -1.3220 hn         1 RJ6       0.400300
     30 HN1A        -3.9390    -2.4270    -1.4310 hn         1 RJ6       0.400300
     31 HN16        -2.9300     2.5750     1.6520 hn         1 RJ6       0.381400
     32 HN17        -5.3210    -1.2090    -0.1680 hn         1 RJ6       0.375400
@<TRIPOS>BOND
     1     1     2 ar  
     2     1     6 ar  
     3     1     7 1   
     4     2     3 ar  
     5     2    18 1   
     6     3     4 ar  
     7     3     9 1   
     8     4     5 ar  
     9     4    19 1   
    10     5     6 ar  
    11     5    11 1   
    12     6    20 1   
    13     7     8 1   
    14     8    21 1   
    15     8    22 1   
    16     8    23 1   
    17     9    10 1   
    18    10    24 1   
    19    10    25 1   
    20    10    26 1   
    21    11    12 1   
    22    11    27 1   
    23    12    13 1   
    24    12    16 2   
    25    13    14 1   
    26    13    28 1   
    27    14    15 1   
    28    14    17 2   
    29    15    29 1   
    30    15    30 1   
    31    16    31 1   
    32    17    32 1   
@<TRIPOS>SUBSTRUCTURE
     1 RJ6         1 TEMP              0 ****  ****    0 ROOT
