@<TRIPOS>MOLECULE
RJ7
   27    27     1     0     0
SMALL
abcg2


@<TRIPOS>ATOM
      1 C10         -1.7160    -0.0950    -0.2700 ca         1 RJ7      -0.178300
      2 C13         -4.2640    -0.5140     0.5940 ca         1 RJ7       0.343900
      3 C15         -2.1040    -1.2130     0.4610 ca         1 RJ7       0.345900
      4 C01          4.7520    -1.3420     0.5530 c3         1 RJ7      -0.099100
      5 C02          4.1190    -0.0880     0.0030 c3         1 RJ7       0.168600
      6 C04          1.9740     0.9130     0.0140 c          1 RJ7       0.576100
      7 C06          0.5340     0.7070     0.4490 c3         1 RJ7       0.103300
      8 C08         -0.2850     0.1080    -0.7040 c3         1 RJ7       0.205600
      9 C11         -2.6910     0.8480    -0.5640 ca         1 RJ7      -0.044000
     10 C12         -3.9890     0.6370    -0.1280 ca         1 RJ7      -0.161000
     11 N14         -3.3420    -1.4260     0.8840 nb         1 RJ7      -0.663000
     12 O03          2.7350    -0.0870     0.4030 os         1 RJ7      -0.448100
     13 O05          2.3390     1.8660    -0.6220 o          1 RJ7      -0.458000
     14 O09          0.3340    -1.0410    -1.2120 oh         1 RJ7      -0.636000
     15 H1          -5.2690    -0.7100     0.9510 h4         1 RJ7       0.022100
     16 H2          -1.3830    -1.9830     0.7230 h4         1 RJ7       0.011100
     17 H3           5.8060    -1.3570     0.2790 hc         1 RJ7       0.048700
     18 H4           4.6890    -1.3780     1.6410 hc         1 RJ7       0.048700
     19 H5           4.2870    -2.2390     0.1450 hc         1 RJ7       0.048700
     20 H6           4.6080     0.8050     0.3940 h1         1 RJ7       0.053200
     21 H7           4.1810    -0.0610    -1.0870 h1         1 RJ7       0.053200
     22 H8           0.4860     0.0670     1.3350 h1         1 RJ7       0.080700
     23 H9          -0.2760     0.8370    -1.5190 h1         1 RJ7       0.102700
     24 H10         -2.4410     1.7320    -1.1380 ha         1 RJ7       0.127000
     25 H11         -4.7760     1.3470    -0.3430 ha         1 RJ7       0.128000
     26 H12          0.4200    -1.7140    -0.5280 ho         1 RJ7       0.450000
     27 F07         -0.0030     1.9380     0.7640 f          1 RJ7      -0.231000
@<TRIPOS>BOND
     1     1     3 ar  
     2     1     8 1   
     3     1     9 ar  
     4     2    10 ar  
     5     2    11 ar  
     6     2    15 1   
     7     3    11 ar  
     8     3    16 1   
     9     4     5 1   
    10     4    17 1   
    11     4    18 1   
    12     4    19 1   
    13     5    12 1   
    14     5    20 1   
    15     5    21 1   
    16     6     7 1   
    17     6    12 1   
    18     6    13 2   
    19     7     8 1   
    20     7    22 1   
    21     7    27 1   
    22     8    14 1   
    23     8    23 1   
    24     9    10 ar  
    25     9    24 1   
    26    10    25 1   
    27    14    26 1   
@<TRIPOS>SUBSTRUCTURE
     1 RJ7         1 TEMP              0 ****  ****    0 ROOT
