@<TRIPOS>MOLECULE
RJ7
   27    27     1     0     0
SMALL
No Charge or Current Charge


@<TRIPOS>ATOM
      1 C10         -1.7990     0.0840    -0.1210 ca         1 RJ7      -0.178300
      2 C13         -4.4400    -0.3760     0.5530 ca         1 RJ7       0.343900
      3 C15         -2.1900    -0.5310     1.0910 ca         1 RJ7       0.345900
      4 C01          5.0100    -1.4170     0.2500 c3         1 RJ7      -0.099100
      5 C02          4.2890    -0.0840    -0.0010 c3         1 RJ7       0.168600
      6 C04          2.0660     0.8150     0.2590 c          1 RJ7       0.576100
      7 C06          0.6360     0.4800     0.7260 c3         1 RJ7       0.103300
      8 C08         -0.3320     0.3300    -0.4810 c3         1 RJ7       0.205600
      9 C11         -2.8090     0.4740    -1.0220 ca         1 RJ7      -0.044000
     10 C12         -4.1480     0.2400    -0.6740 ca         1 RJ7      -0.161000
     11 N14         -3.4810    -0.7590     1.4260 nb         1 RJ7      -0.663000
     12 O03          2.9180    -0.2550     0.3960 os         1 RJ7      -0.448100
     13 O05          2.4100     1.9140    -0.1630 o          1 RJ7      -0.458000
     14 O09          0.1050    -0.7290    -1.3450 oh         1 RJ7      -0.636000
     15 H1          -5.4710    -0.5690     0.8460 h4         1 RJ7       0.022100
     16 H2          -1.4540    -0.8640     1.8210 h4         1 RJ7       0.011100
     17 H3           6.0640    -1.3390    -0.0390 hc         1 RJ7       0.048700
     18 H4           4.9630    -1.6880     1.3110 hc         1 RJ7       0.048700
     19 H5           4.5510    -2.2210    -0.3380 hc         1 RJ7       0.048700
     20 H6           4.7720     0.7100     0.5850 h1         1 RJ7       0.053200
     21 H7           4.3600     0.1760    -1.0660 h1         1 RJ7       0.053200
     22 H8           0.6880    -0.4700     1.2710 h1         1 RJ7       0.080700
     23 H9          -0.2860     1.2830    -1.0290 h1         1 RJ7       0.102700
     24 H10         -2.5620     0.9470    -1.9710 ha         1 RJ7       0.127000
     25 H11         -4.9540     0.5270    -1.3430 ha         1 RJ7       0.128000
     26 H12         -0.3450    -1.5500    -1.0490 ho         1 RJ7       0.450000
     27 F07          0.1660     1.4270     1.5860 f          1 RJ7      -0.231000
@<TRIPOS>BOND
     1     1     3 ar  
     2     1     8 1   
     3     1     9 ar  
     4     2    10 ar  
     5     2    11 ar  
     6     2    15 1   
     7     3    11 ar  
     8     3    16 1   
     9     4     5 1   
    10     4    17 1   
    11     4    18 1   
    12     4    19 1   
    13     5    12 1   
    14     5    20 1   
    15     5    21 1   
    16     6     7 1   
    17     6    12 1   
    18     6    13 2   
    19     7     8 1   
    20     7    22 1   
    21     7    27 1   
    22     8    14 1   
    23     8    23 1   
    24     9    10 ar  
    25     9    24 1   
    26    10    25 1   
    27    14    26 1   
@<TRIPOS>SUBSTRUCTURE
     1 RJ7         1 TEMP              0 ****  ****    0 ROOT
