@<TRIPOS>MOLECULE
RJ8
   26    28     1     0     0
SMALL
No Charge or Current Charge


@<TRIPOS>ATOM
      1 C1          41.0070     7.1280    10.2750 ca         1 RJ8       0.595900
      2 N1          40.2910     8.1300     9.7620 nv         1 RJ8      -1.057900
      3 O1          44.4930     5.6210    17.2440 os         1 RJ8      -0.171200
      4 C2          41.8300     5.0560     9.8170 ca         1 RJ8       0.381900
      5 N2          41.1320     6.1370     9.4060 nb         1 RJ8      -0.742000
      6 C3          42.4030     4.9560    11.0960 ca         1 RJ8      -0.215000
      7 C4          42.2660     6.0170    12.0220 cp         1 RJ8       0.048000
      8 C5          41.5320     7.1360    11.5680 ca         1 RJ8      -0.225000
      9 C6          42.8590     5.9560    13.3970 cp         1 RJ8      -0.066000
     10 C7          42.9860     4.7140    14.0820 ca         1 RJ8      -0.041000
     11 C8          43.5470     4.7150    15.3640 ca         1 RJ8      -0.117800
     12 C9          43.9760     5.8550    15.9850 ca         1 RJ8       0.063100
     13 C10         44.3760     4.2400    17.4230 cc         1 RJ8      -0.069900
     14 C11         43.8060     3.6700    16.2990 cd         1 RJ8      -0.234200
     15 C12         43.8730     7.0990    15.3520 ca         1 RJ8      -0.106000
     16 C13         43.3120     7.1410    14.0560 ca         1 RJ8      -0.077000
     17 H1          39.7770     7.8980     8.9200 hn         1 RJ8       0.471000
     18 H2          39.8380     8.7670    10.4090 hn         1 RJ8       0.471000
     19 H3          41.9360     4.2440     9.0980 h4         1 RJ8       0.015100
     20 H4          42.9620     4.0620    11.3520 ha         1 RJ8       0.125000
     21 H5          41.3620     7.9920    12.2130 ha         1 RJ8       0.120000
     22 H6          42.6470     3.7830    13.6360 ha         1 RJ8       0.124000
     23 H7          44.7250     3.8150    18.3610 h4         1 RJ8       0.239000
     24 H8          43.5970     2.6110    16.1620 ha         1 RJ8       0.215000
     25 H9          44.2180     8.0040    15.8460 ha         1 RJ8       0.133000
     26 H10         43.2410     8.1020    13.5530 ha         1 RJ8       0.120000
@<TRIPOS>BOND
     1     1     2 1   
     2     1     5 ar  
     3     1     8 ar  
     4     2    17 1   
     5     2    18 1   
     6     3    12 1   
     7     3    13 1   
     8     4     5 ar  
     9     4     6 ar  
    10     4    19 1   
    11     6     7 ar  
    12     6    20 1   
    13     7     8 ar  
    14     7     9 1   
    15     8    21 1   
    16     9    10 ar  
    17     9    16 ar  
    18    10    11 ar  
    19    10    22 1   
    20    11    12 ar  
    21    11    14 1   
    22    12    15 ar  
    23    13    14 2   
    24    13    23 1   
    25    14    24 1   
    26    15    16 ar  
    27    15    25 1   
    28    16    26 1   
@<TRIPOS>SUBSTRUCTURE
     1 RJ8         1 TEMP              0 ****  ****    0 ROOT
