@<TRIPOS>MOLECULE
RJ8
   26    28     1     0     0
SMALL
bcc


@<TRIPOS>ATOM
      1 C1          40.9840     7.0860    10.3180 ca         1 RJ8       0.661200
      2 N1          40.2610     8.1560     9.8800 nv         1 RJ8      -0.947500
      3 O1          44.4360     5.6330    17.1430 os         1 RJ8      -0.171200
      4 C2          41.9180     5.0610     9.8530 ca         1 RJ8       0.447200
      5 N2          41.1760     6.0900     9.4550 nb         1 RJ8      -0.742000
      6 C3          42.5000     4.9530    11.0990 ca         1 RJ8      -0.298300
      7 C4          42.2960     5.9920    12.0180 cp         1 RJ8       0.048000
      8 C5          41.5270     7.0690    11.6150 ca         1 RJ8      -0.308300
      9 C6          42.8770     5.9320    13.3750 cp         1 RJ8      -0.066000
     10 C7          42.9570     4.7170    14.0440 ca         1 RJ8      -0.059000
     11 C8          43.4990     4.6860    15.3270 ca         1 RJ8      -0.117800
     12 C9          43.9520     5.8730    15.9060 ca         1 RJ8       0.063100
     13 C10         44.2960     4.2990    17.3630 cc         1 RJ8      -0.019900
     14 C11         43.7370     3.6670    16.3120 cd         1 RJ8      -0.184200
     15 C12         43.8930     7.0980    15.2660 ca         1 RJ8      -0.124000
     16 C13         43.3470     7.1060    13.9950 ca         1 RJ8      -0.095000
     17 H1          39.6800     8.0020     9.0720 hn         1 RJ8       0.415800
     18 H2          39.8570     8.7660    10.5700 hn         1 RJ8       0.415800
     19 H3          42.0610     4.2710     9.1230 h4         1 RJ8       0.015100
     20 H4          43.1100     4.0940    11.3410 ha         1 RJ8       0.143000
     21 H5          41.3170     7.8880    12.2910 ha         1 RJ8       0.138000
     22 H6          42.5860     3.8080    13.5880 ha         1 RJ8       0.142000
     23 H7          44.6410     3.9400    18.3200 h4         1 RJ8       0.189000
     24 H8          43.5230     2.6140    16.2410 ha         1 RJ8       0.165000
     25 H9          44.2590     8.0060    15.7270 ha         1 RJ8       0.151000
     26 H10         43.3020     8.0430    13.4560 ha         1 RJ8       0.138000
@<TRIPOS>BOND
     1     1     2 1   
     2     1     5 ar  
     3     1     8 ar  
     4     2    17 1   
     5     2    18 1   
     6     3    12 1   
     7     3    13 1   
     8     4     5 ar  
     9     4     6 ar  
    10     4    19 1   
    11     6     7 ar  
    12     6    20 1   
    13     7     8 ar  
    14     7     9 1   
    15     8    21 1   
    16     9    10 ar  
    17     9    16 ar  
    18    10    11 ar  
    19    10    22 1   
    20    11    12 ar  
    21    11    14 1   
    22    12    15 ar  
    23    13    14 2   
    24    13    23 1   
    25    14    24 1   
    26    15    16 ar  
    27    15    25 1   
    28    16    26 1   
@<TRIPOS>SUBSTRUCTURE
     1 RJ8         1 TEMP              0 ****  ****    0 ROOT
