@<TRIPOS>MOLECULE
RJ9
   40    43     1     0     0
SMALL
abcg2


@<TRIPOS>ATOM
      1 C02        -46.3430   -29.9770     0.3080 c          1 RJ9       0.719000
      2 C03        -44.8370   -30.0160     0.6400 c6         1 RJ9      -0.209700
      3 C04        -44.1230   -28.7010     0.3310 c6         1 RJ9      -0.053400
      4 C05        -42.6010   -28.8950     0.3630 c6         1 RJ9      -0.078400
      5 C06        -42.1890   -29.9700     1.3780 c6         1 RJ9      -0.067400
      6 C07        -43.1550   -29.9920     2.5530 c6         1 RJ9      -0.087400
      7 C08        -44.5710   -30.4190     2.1140 c6         1 RJ9       0.252500
      8 C10        -45.8190   -30.1870     4.2360 ca         1 RJ9       0.445900
      9 C11        -46.8780   -29.6470     4.9980 cp         1 RJ9      -0.258000
     10 C12        -47.9650   -28.7250     4.7980 cp         1 RJ9      -0.048000
     11 C13        -48.6480   -28.6630     6.0350 ca         1 RJ9      -0.011200
     12 C14        -49.7780   -27.8790     6.2270 ca         1 RJ9      -0.196000
     13 C15        -50.2070   -27.1550     5.1360 ca         1 RJ9       0.171000
     14 C16        -49.5710   -27.1820     3.9000 ca         1 RJ9      -0.180000
     15 C17        -48.4460   -27.9710     3.7280 ca         1 RJ9      -0.028000
     16 C20        -46.9610   -30.0920     6.3200 ca         1 RJ9       0.193500
     17 C22        -45.2190   -31.4230     6.0750 ca         1 RJ9       0.184900
     18 F18        -51.3030   -26.3890     5.2710 f          1 RJ9      -0.197000
     19 N09        -45.5920   -29.8340     2.9710 nu         1 RJ9      -0.887100
     20 N19        -48.0170   -29.4890     6.9290 na         1 RJ9      -0.334300
     21 N21        -46.1480   -30.9730     6.9010 nb         1 RJ9      -0.287000
     22 N23        -45.0110   -31.0950     4.8100 nb         1 RJ9      -0.311000
     23 O01        -46.8280   -30.9430    -0.3010 o          1 RJ9      -0.728000
     24 O24        -46.9660   -28.9550     0.6980 o          1 RJ9      -0.728000
     25 H031       -44.3860   -30.7990     0.0250 hc         1 RJ9       0.049700
     26 H041       -44.4230   -27.9440     1.0610 hc         1 RJ9       0.042200
     27 H042       -44.4270   -28.3140    -0.6440 hc         1 RJ9       0.042200
     28 H051       -42.2380   -29.1710    -0.6300 hc         1 RJ9       0.020200
     29 H052       -42.1170   -27.9480     0.6130 hc         1 RJ9       0.020200
     30 H061       -42.1740   -30.9560     0.9030 hc         1 RJ9       0.026200
     31 H062       -41.1710   -29.7920     1.7300 hc         1 RJ9       0.026200
     32 H072       -42.8030   -30.6590     3.3400 hc         1 RJ9       0.042200
     33 H071       -43.2090   -28.9920     2.9940 hc         1 RJ9       0.042200
     34 H081       -44.6480   -31.5080     2.1880 h1         1 RJ9       0.059700
     35 H141       -50.2990   -27.8390     7.1750 ha         1 RJ9       0.119000
     36 H161       -49.9610   -26.5920     3.0810 ha         1 RJ9       0.130000
     37 H171       -47.9670   -27.9960     2.7580 ha         1 RJ9       0.170000
     38 H221       -44.5340   -32.1590     6.4870 h5         1 RJ9       0.026100
     39 H091       -46.2410   -29.2100     2.5030 hn         1 RJ9       0.554000
     40 H191       -48.2990   -29.6460     7.8840 hn         1 RJ9       0.352000
@<TRIPOS>BOND
     1     1     2 1   
     2     1    23 1   
     3     1    24 1   
     4     2     3 1   
     5     2     7 1   
     6     2    25 1   
     7     3     4 1   
     8     3    26 1   
     9     3    27 1   
    10     4     5 1   
    11     4    28 1   
    12     4    29 1   
    13     5     6 1   
    14     5    30 1   
    15     5    31 1   
    16     6     7 1   
    17     6    32 1   
    18     6    33 1   
    19     7    19 1   
    20     7    34 1   
    21     8     9 ar  
    22     8    19 1   
    23     8    22 ar  
    24     9    10 1   
    25     9    16 ar  
    26    10    11 ar  
    27    10    15 ar  
    28    11    12 ar  
    29    11    20 1   
    30    12    13 ar  
    31    12    35 1   
    32    13    14 ar  
    33    13    18 1   
    34    14    15 ar  
    35    14    36 1   
    36    15    37 1   
    37    16    20 1   
    38    16    21 ar  
    39    17    21 ar  
    40    17    22 ar  
    41    17    38 1   
    42    19    39 1   
    43    20    40 1   
@<TRIPOS>SUBSTRUCTURE
     1 RJ9         1 TEMP              0 ****  ****    0 ROOT
