@<TRIPOS>MOLECULE
RJ9
   40    43     1     0     0
SMALL
No Charge or Current Charge


@<TRIPOS>ATOM
      1 C02        -46.3840   -30.3460     0.3230 c          1 RJ9       0.719000
      2 C03        -44.8930   -30.1440     0.6710 c6         1 RJ9      -0.209700
      3 C04        -44.3490   -28.7600     0.2210 c6         1 RJ9      -0.053400
      4 C05        -42.7960   -28.6980     0.3070 c6         1 RJ9      -0.078400
      5 C06        -42.2040   -29.6330     1.4000 c6         1 RJ9      -0.067400
      6 C07        -43.1770   -29.7940     2.5910 c6         1 RJ9      -0.087400
      7 C08        -44.5330   -30.4440     2.1640 c6         1 RJ9       0.252500
      8 C10        -45.8270   -30.3420     4.3570 ca         1 RJ9       0.445900
      9 C11        -46.8770   -29.7970     5.1210 cp         1 RJ9      -0.258000
     10 C12        -47.8730   -28.7520     4.8670 cp         1 RJ9      -0.048000
     11 C13        -48.6720   -28.6560     6.0010 ca         1 RJ9      -0.011200
     12 C14        -49.7260   -27.7490     6.1270 ca         1 RJ9      -0.196000
     13 C15        -49.9700   -26.8950     5.0340 ca         1 RJ9       0.171000
     14 C16        -49.1660   -26.9550     3.8710 ca         1 RJ9      -0.180000
     15 C17        -48.1030   -27.8820     3.7780 ca         1 RJ9      -0.028000
     16 C20        -47.0680   -30.2990     6.4130 ca         1 RJ9       0.193500
     17 C22        -45.3010   -31.7020     6.1430 ca         1 RJ9       0.184900
     18 F18        -50.9770   -25.9970     5.1020 f          1 RJ9      -0.197000
     19 N09        -45.5970   -29.9530     3.0460 nu         1 RJ9      -0.887100
     20 N19        -48.1710   -29.5950     6.9090 na         1 RJ9      -0.334300
     21 N21        -46.2910   -31.2530     6.9470 nb         1 RJ9      -0.287000
     22 N23        -45.0330   -31.3000     4.8780 nb         1 RJ9      -0.311000
     23 O01        -46.6740   -31.2320    -0.4670 o          1 RJ9      -0.728000
     24 O24        -47.2050   -29.5990     0.8380 o          1 RJ9      -0.728000
     25 H031       -44.3550   -30.8940     0.0740 hc         1 RJ9       0.049700
     26 H041       -44.7860   -27.9730     0.8520 hc         1 RJ9       0.042200
     27 H042       -44.6690   -28.5400    -0.8070 hc         1 RJ9       0.042200
     28 H051       -42.3590   -28.9650    -0.6650 hc         1 RJ9       0.020200
     29 H052       -42.4920   -27.6600     0.5010 hc         1 RJ9       0.020200
     30 H061       -41.9930   -30.6210     0.9690 hc         1 RJ9       0.026200
     31 H062       -41.2390   -29.2370     1.7470 hc         1 RJ9       0.026200
     32 H072       -42.7080   -30.3980     3.3790 hc         1 RJ9       0.042200
     33 H071       -43.3500   -28.8010     3.0310 hc         1 RJ9       0.042200
     34 H081       -44.4500   -31.5380     2.2550 h1         1 RJ9       0.059700
     35 H141       -50.3300   -27.6980     7.0280 ha         1 RJ9       0.119000
     36 H161       -49.3660   -26.2770     3.0460 ha         1 RJ9       0.130000
     37 H171       -47.4770   -27.9060     2.8900 ha         1 RJ9       0.170000
     38 H221       -44.6540   -32.4760     6.5540 h5         1 RJ9       0.026100
     39 H091       -46.4220   -29.5850     2.5610 hn         1 RJ9       0.554000
     40 H191       -48.5570   -29.7520     7.8320 hn         1 RJ9       0.352000
@<TRIPOS>BOND
     1     1     2 1   
     2     1    23 1   
     3     1    24 1   
     4     2     3 1   
     5     2     7 1   
     6     2    25 1   
     7     3     4 1   
     8     3    26 1   
     9     3    27 1   
    10     4     5 1   
    11     4    28 1   
    12     4    29 1   
    13     5     6 1   
    14     5    30 1   
    15     5    31 1   
    16     6     7 1   
    17     6    32 1   
    18     6    33 1   
    19     7    19 1   
    20     7    34 1   
    21     8     9 ar  
    22     8    19 1   
    23     8    22 ar  
    24     9    10 1   
    25     9    16 ar  
    26    10    11 ar  
    27    10    15 ar  
    28    11    12 ar  
    29    11    20 1   
    30    12    13 ar  
    31    12    35 1   
    32    13    14 ar  
    33    13    18 1   
    34    14    15 ar  
    35    14    36 1   
    36    15    37 1   
    37    16    20 1   
    38    16    21 ar  
    39    17    21 ar  
    40    17    22 ar  
    41    17    38 1   
    42    19    39 1   
    43    20    40 1   
@<TRIPOS>SUBSTRUCTURE
     1 RJ9         1 TEMP              0 ****  ****    0 ROOT
