@<TRIPOS>MOLECULE
RJA
   77    77     1     0     0
SMALL
abcg2


@<TRIPOS>ATOM
      1 C1           3.8110    -5.1170    -0.3860 c          1 RJA       0.718000
      2 O1           4.5740    -6.0100    -0.8150 o          1 RJA      -0.743000
      3 C2           4.4230    -3.7100    -0.2700 c3         1 RJA      -0.206400
      4 O2           3.1910    -0.5850     2.5970 oh         1 RJA      -0.655000
      5 C3           3.5910    -2.6860     0.4810 c3         1 RJA      -0.054400
      6 O3          -5.0740     1.7920    -0.5410 oh         1 RJA      -0.721000
      7 C4           4.2330    -1.3040     0.5050 c3         1 RJA      -0.108400
      8 O4          -6.3630    -3.1990    -0.1560 oh         1 RJA      -0.658000
      9 C5           3.3890    -0.2590     1.2310 c3         1 RJA       0.190500
     10 O5          -3.2660    -0.4880    -0.5200 os         1 RJA      -0.460000
     11 C6           3.9670     1.1180     1.0790 c2         1 RJA      -0.223200
     12 C7           3.3210     2.1040     0.4510 ce         1 RJA      -0.189000
     13 C8           3.8130     3.4640     0.2380 ce         1 RJA      -0.066200
     14 C9           3.0730     4.4000    -0.3800 c2         1 RJA      -0.221200
     15 O6           2.6140    -5.2670    -0.0680 o          1 RJA      -0.743000
     16 C10          1.6820     4.2570    -0.9220 c3         1 RJA      -0.023500
     17 C11          0.6940     5.0290    -0.0170 c3         1 RJA      -0.036200
     18 C12         -0.7520     4.6940    -0.2920 c2         1 RJA      -0.107400
     19 C13         -1.2730     3.5950     0.2770 ce         1 RJA      -0.184000
     20 C14         -2.6030     3.0430     0.0930 ce         1 RJA      -0.172000
     21 C15         -3.0340     1.9680     0.7600 c2         1 RJA      -0.233200
     22 C16         -4.3650     1.3000     0.5690 c3         1 RJA       0.214500
     23 C17         -4.1730    -0.2190     0.5260 c6         1 RJA       0.143300
     24 C18         -5.4700    -0.9900     0.3280 c6         1 RJA      -0.142400
     25 C19         -5.1920    -2.4820     0.1730 c6         1 RJA       0.173300
     26 C20         -4.1640    -2.7120    -0.9290 c6         1 RJA      -0.079700
     27 C21         -2.9150    -1.8570    -0.6670 c6         1 RJA       0.215500
     28 C22         -2.0850    -2.3550     0.4870 c2         1 RJA      -0.315200
     29 C23         -0.7600    -2.4550     0.4420 c2         1 RJA      -0.137200
     30 C24          0.1020    -2.9540     1.5530 c3         1 RJA      -0.089900
     31 C25          5.1900     3.7920     0.7420 c3         1 RJA      -0.053900
     32 C26          1.6320     4.7180    -2.3780 c3         1 RJA      -0.082100
     33 C27         -1.5130     5.6300    -1.1800 c3         1 RJA      -0.050900
     34 C28         -3.8000    -4.1800    -1.1080 c3         1 RJA      -0.078100
     35 H2           5.4130    -3.8000     0.1910 hc         1 RJA       0.016700
     36 H2A          4.6200    -3.3460    -1.2870 hc         1 RJA       0.016700
     37 H3           2.6020    -2.6100     0.0220 hc         1 RJA       0.042700
     38 H3A          3.4160    -3.0290     1.5040 hc         1 RJA       0.042700
     39 H4           5.2290    -1.3520     0.9640 hc         1 RJA       0.033200
     40 H4A          4.3950    -0.9590    -0.5210 hc         1 RJA       0.033200
     41 HO4         -6.9920    -3.0900     0.5640 ho         1 RJA       0.434000
     42 H5           2.3870    -0.2650     0.7870 h1         1 RJA       0.072700
     43 H6           4.9580     1.2780     1.4970 ha         1 RJA       0.163000
     44 H7           2.3360     1.8730     0.0580 ha         1 RJA       0.175000
     45 H9           3.5060     5.3920    -0.4930 ha         1 RJA       0.160000
     46 H10          1.3790     3.2090    -0.8980 hc         1 RJA       0.062700
     47 H11          0.9240     4.7780     1.0210 hc         1 RJA       0.044700
     48 H11A         0.8700     6.1040    -0.1260 hc         1 RJA       0.044700
     49 H13         -0.6260     3.0280     0.9440 ha         1 RJA       0.174000
     50 H14         -3.2580     3.5130    -0.6330 ha         1 RJA       0.173000
     51 H15         -2.3820     1.5090     1.4990 ha         1 RJA       0.181000
     52 H16         -4.9970     1.5050     1.4430 h1         1 RJA       0.072700
     53 H17         -3.7370    -0.5030     1.4970 h1         1 RJA       0.043700
     54 H18         -6.1310    -0.8180     1.1830 hc         1 RJA       0.053700
     55 H18A        -5.9850    -0.6270    -0.5660 hc         1 RJA       0.053700
     56 H19         -4.7800    -2.8600     1.1220 h1         1 RJA       0.032700
     57 H20         -4.6000    -2.3470    -1.8680 hc         1 RJA       0.058700
     58 H21         -2.2910    -1.8890    -1.5650 h1         1 RJA       0.078700
     59 H22         -2.5950    -2.6570     1.3990 ha         1 RJA       0.162000
     60 H23         -0.2440    -2.1600    -0.4700 ha         1 RJA       0.171000
     61 H24          0.7570    -3.7550     1.2060 hc         1 RJA       0.062033
     62 H24A         0.7620    -2.1660     1.9260 hc         1 RJA       0.062033
     63 H24B        -0.4930    -3.3210     2.3900 hc         1 RJA       0.062033
     64 H25          5.9480     3.1570     0.2770 hc         1 RJA       0.037700
     65 H25A         5.4490     4.8300     0.5370 hc         1 RJA       0.037700
     66 H25B         5.2690     3.6350     1.8200 hc         1 RJA       0.037700
     67 H26          2.3690     4.1830    -2.9780 hc         1 RJA       0.032033
     68 H26A         0.6550     4.5320    -2.8230 hc         1 RJA       0.032033
     69 H26B         1.8440     5.7860    -2.4630 hc         1 RJA       0.032033
     70 H27         -0.9710     5.8380    -2.1040 hc         1 RJA       0.037033
     71 H27A        -2.5010     5.2630    -1.4510 hc         1 RJA       0.037033
     72 H27B        -1.6450     6.5940    -0.6810 hc         1 RJA       0.037033
     73 H28         -4.6550    -4.7560    -1.4590 hc         1 RJA       0.041033
     74 H28A        -3.0010    -4.2950    -1.8420 hc         1 RJA       0.041033
     75 H28B        -3.4560    -4.6280    -0.1740 hc         1 RJA       0.041033
     76 HO2          4.0530    -0.7450     2.9970 ho         1 RJA       0.434000
     77 HO3         -4.5600     1.5950    -1.3330 ho         1 RJA       0.516000
@<TRIPOS>BOND
     1     1     2 1   
     2     1     3 1   
     3     1    15 1   
     4     3     5 1   
     5     3    35 1   
     6     3    36 1   
     7     4     9 1   
     8     4    76 1   
     9     5     7 1   
    10     5    37 1   
    11     5    38 1   
    12     6    22 1   
    13     6    77 1   
    14     7     9 1   
    15     7    39 1   
    16     7    40 1   
    17     8    25 1   
    18     8    41 1   
    19     9    11 1   
    20     9    42 1   
    21    10    23 1   
    22    10    27 1   
    23    11    12 2   
    24    11    43 1   
    25    12    13 1   
    26    12    44 1   
    27    13    14 2   
    28    13    31 1   
    29    14    16 1   
    30    14    45 1   
    31    16    17 1   
    32    16    32 1   
    33    16    46 1   
    34    17    18 1   
    35    17    47 1   
    36    17    48 1   
    37    18    19 2   
    38    18    33 1   
    39    19    20 1   
    40    19    49 1   
    41    20    21 2   
    42    20    50 1   
    43    21    22 1   
    44    21    51 1   
    45    22    23 1   
    46    22    52 1   
    47    23    24 1   
    48    23    53 1   
    49    24    25 1   
    50    24    54 1   
    51    24    55 1   
    52    25    26 1   
    53    25    56 1   
    54    26    27 1   
    55    26    34 1   
    56    26    57 1   
    57    27    28 1   
    58    27    58 1   
    59    28    29 2   
    60    28    59 1   
    61    29    30 1   
    62    29    60 1   
    63    30    61 1   
    64    30    62 1   
    65    30    63 1   
    66    31    64 1   
    67    31    65 1   
    68    31    66 1   
    69    32    67 1   
    70    32    68 1   
    71    32    69 1   
    72    33    70 1   
    73    33    71 1   
    74    33    72 1   
    75    34    73 1   
    76    34    74 1   
    77    34    75 1   
@<TRIPOS>SUBSTRUCTURE
     1 RJA         1 TEMP              0 ****  ****    0 ROOT
