@<TRIPOS>MOLECULE
RJA
   77    77     1     0     0
SMALL
No Charge or Current Charge


@<TRIPOS>ATOM
      1 C1           4.1470    -5.1920     0.7110 c          1 RJA       0.718000
      2 O1           3.9380    -5.6710     1.8160 o          1 RJA      -0.743000
      3 C2           4.8610    -3.8310     0.6320 c3         1 RJA      -0.206400
      4 O2           2.7910    -0.0620     1.8740 oh         1 RJA      -0.655000
      5 C3           3.8270    -2.6790     0.6820 c3         1 RJA      -0.054400
      6 O3          -4.5110     1.3210    -1.6640 oh         1 RJA      -0.721000
      7 C4           4.4760    -1.2750     0.6040 c3         1 RJA      -0.108400
      8 O4          -6.9250    -2.9490     0.6280 oh         1 RJA      -0.658000
      9 C5           3.4560    -0.1110     0.6130 c3         1 RJA       0.190500
     10 O5          -3.6080    -1.1730    -1.1770 os         1 RJA      -0.460000
     11 C6           4.1070     1.2350     0.3770 c2         1 RJA      -0.223200
     12 C7           3.4450     2.3610     0.0220 ce         1 RJA      -0.189000
     13 C8           4.0490     3.6920    -0.2130 ce         1 RJA      -0.066200
     14 C9           3.3170     4.7650    -0.6040 c2         1 RJA      -0.221200
     15 O6           3.7830    -5.7140    -0.3320 o          1 RJA      -0.743000
     16 C10          1.8200     4.8250    -0.8830 c3         1 RJA      -0.023500
     17 C11          1.0130     4.9180     0.4400 c3         1 RJA      -0.036200
     18 C12         -0.4690     4.6070     0.2690 c2         1 RJA      -0.107400
     19 C13         -0.9070     3.3360     0.1070 ce         1 RJA      -0.184000
     20 C14         -2.3050     2.9030    -0.0180 ce         1 RJA      -0.172000
     21 C15         -2.6470     1.6120    -0.2210 c2         1 RJA      -0.233200
     22 C16         -4.0540     1.0650    -0.3340 c3         1 RJA       0.214500
     23 C17         -4.1350    -0.4670    -0.0220 c6         1 RJA       0.143300
     24 C18         -5.5740    -0.9650     0.2610 c6         1 RJA      -0.142400
     25 C19         -5.5760    -2.4980     0.4730 c6         1 RJA       0.173300
     26 C20         -4.8870    -3.2190    -0.7250 c6         1 RJA      -0.079700
     27 C21         -3.4840    -2.6010    -1.0100 c6         1 RJA       0.215500
     28 C22         -2.4240    -2.8990     0.0460 c2         1 RJA      -0.315200
     29 C23         -1.1190    -2.6360    -0.1300 c2         1 RJA      -0.137200
     30 C24         -0.0310    -2.8950     0.8890 c3         1 RJA      -0.089900
     31 C25          5.5480     3.8290     0.0180 c3         1 RJA      -0.053900
     32 C26          1.4800     5.9750    -1.8580 c3         1 RJA      -0.082100
     33 C27         -1.3560     5.8430     0.3410 c3         1 RJA      -0.050900
     34 C28         -4.8260    -4.7660    -0.5530 c3         1 RJA      -0.078100
     35 H2           5.5120    -3.6880     1.5040 hc         1 RJA       0.016700
     36 H2A          5.3810    -3.7260    -0.3290 hc         1 RJA       0.016700
     37 H3           3.1210    -2.7940    -0.1500 hc         1 RJA       0.042700
     38 H3A          3.2450    -2.7620     1.6080 hc         1 RJA       0.042700
     39 H4           5.1820    -1.1520     1.4350 hc         1 RJA       0.033200
     40 H4A          5.0630    -1.2140    -0.3200 hc         1 RJA       0.033200
     41 HO4         -7.2880    -2.4860     1.4140 ho         1 RJA       0.434000
     42 H5           2.7270    -0.2920    -0.1900 h1         1 RJA       0.072700
     43 H6           5.1880     1.2340     0.5140 ha         1 RJA       0.163000
     44 H7           2.3650     2.2920    -0.0980 ha         1 RJA       0.175000
     45 H9           3.8190     5.7230    -0.7470 ha         1 RJA       0.160000
     46 H10          1.5260     3.9010    -1.3940 hc         1 RJA       0.062700
     47 H11          1.4350     4.2040     1.1580 hc         1 RJA       0.044700
     48 H11A         1.1690     5.9050     0.8940 hc         1 RJA       0.044700
     49 H13         -0.1690     2.5330     0.0790 ha         1 RJA       0.174000
     50 H14         -3.0870     3.6580     0.0710 ha         1 RJA       0.173000
     51 H15         -1.8720     0.8480    -0.3100 ha         1 RJA       0.181000
     52 H16         -4.6870     1.5900     0.3960 h1         1 RJA       0.072700
     53 H17         -3.5040    -0.6700     0.8560 h1         1 RJA       0.043700
     54 H18         -5.9720    -0.4610     1.1510 hc         1 RJA       0.053700
     55 H18A        -6.2320    -0.7000    -0.5780 hc         1 RJA       0.053700
     56 H19         -5.0070    -2.7200     1.3880 h1         1 RJA       0.032700
     57 H20         -5.5010    -3.0470    -1.6200 hc         1 RJA       0.058700
     58 H21         -3.1280    -3.0120    -1.9670 h1         1 RJA       0.078700
     59 H22         -2.7730    -3.3340     0.9820 ha         1 RJA       0.162000
     60 H23         -0.7650    -2.1910    -1.0630 ha         1 RJA       0.171000
     61 H24          0.7050    -3.6100     0.5030 hc         1 RJA       0.062033
     62 H24A         0.5010    -1.9690     1.1390 hc         1 RJA       0.062033
     63 H24B        -0.4370    -3.3070     1.8210 hc         1 RJA       0.062033
     64 H25          6.1150     3.1940    -0.6730 hc         1 RJA       0.037700
     65 H25A         5.8950     4.8590    -0.1310 hc         1 RJA       0.037700
     66 H25B         5.8200     3.5440     1.0410 hc         1 RJA       0.037700
     67 H26          2.0710     5.8860    -2.7770 hc         1 RJA       0.032033
     68 H26A         0.4200     5.9490    -2.1370 hc         1 RJA       0.032033
     69 H26B         1.6940     6.9500    -1.4050 hc         1 RJA       0.032033
     70 H27         -0.8590     6.7250    -0.0810 hc         1 RJA       0.037033
     71 H27A        -2.2890     5.7170    -0.2190 hc         1 RJA       0.037033
     72 H27B        -1.6160     6.0770     1.3800 hc         1 RJA       0.037033
     73 H28         -5.8310    -5.2030    -0.5110 hc         1 RJA       0.041033
     74 H28A        -4.3030    -5.2360    -1.3950 hc         1 RJA       0.041033
     75 H28B        -4.3040    -5.0540     0.3670 hc         1 RJA       0.041033
     76 HO2          3.4250     0.3440     2.5010 ho         1 RJA       0.434000
     77 HO3         -4.2360     0.5080    -2.1510 ho         1 RJA       0.516000
@<TRIPOS>BOND
     1     1     2 1   
     2     1     3 1   
     3     1    15 1   
     4     3     5 1   
     5     3    35 1   
     6     3    36 1   
     7     4     9 1   
     8     4    76 1   
     9     5     7 1   
    10     5    37 1   
    11     5    38 1   
    12     6    22 1   
    13     6    77 1   
    14     7     9 1   
    15     7    39 1   
    16     7    40 1   
    17     8    25 1   
    18     8    41 1   
    19     9    11 1   
    20     9    42 1   
    21    10    23 1   
    22    10    27 1   
    23    11    12 2   
    24    11    43 1   
    25    12    13 1   
    26    12    44 1   
    27    13    14 2   
    28    13    31 1   
    29    14    16 1   
    30    14    45 1   
    31    16    17 1   
    32    16    32 1   
    33    16    46 1   
    34    17    18 1   
    35    17    47 1   
    36    17    48 1   
    37    18    19 2   
    38    18    33 1   
    39    19    20 1   
    40    19    49 1   
    41    20    21 2   
    42    20    50 1   
    43    21    22 1   
    44    21    51 1   
    45    22    23 1   
    46    22    52 1   
    47    23    24 1   
    48    23    53 1   
    49    24    25 1   
    50    24    54 1   
    51    24    55 1   
    52    25    26 1   
    53    25    56 1   
    54    26    27 1   
    55    26    34 1   
    56    26    57 1   
    57    27    28 1   
    58    27    58 1   
    59    28    29 2   
    60    28    59 1   
    61    29    30 1   
    62    29    60 1   
    63    30    61 1   
    64    30    62 1   
    65    30    63 1   
    66    31    64 1   
    67    31    65 1   
    68    31    66 1   
    69    32    67 1   
    70    32    68 1   
    71    32    69 1   
    72    33    70 1   
    73    33    71 1   
    74    33    72 1   
    75    34    73 1   
    76    34    74 1   
    77    34    75 1   
@<TRIPOS>SUBSTRUCTURE
     1 RJA         1 TEMP              0 ****  ****    0 ROOT
