@<TRIPOS>MOLECULE
RJB
   43    46     1     0     0
SMALL
abcg2


@<TRIPOS>ATOM
      1 S1          14.6380    -3.8570    23.1110 ss         1 RJB       0.040800
      2 O2          20.4400    -2.4580    22.4180 o          1 RJB      -0.724500
      3 O3          17.3880    -1.6480    22.9490 o          1 RJB      -0.598100
      4 C4          17.7180    -2.6240    22.2960 c          1 RJB       0.650100
      5 C5          17.2140    -4.0480    24.1930 c3         1 RJB       0.084700
      6 C6          15.7770    -3.7020    24.4290 cc         1 RJB       0.421200
      7 C7          13.9260    -3.1520    25.4710 ca         1 RJB       0.106400
      8 C8          13.0940    -2.7530    26.5160 ca         1 RJB      -0.062000
      9 C9          11.7420    -2.5990    26.2720 ca         1 RJB      -0.123000
     10 C10         11.2080    -2.8340    25.0010 ca         1 RJB      -0.118000
     11 C11         12.0180    -3.2290    23.9510 ca         1 RJB      -0.071000
     12 C12         13.3770    -3.3870    24.1990 ca         1 RJB      -0.194000
     13 C13         16.9040    -2.9910    19.9830 c5         1 RJB      -0.026600
     14 C15         14.7870    -1.5420    19.5120 ca         1 RJB      -0.100000
     15 C17         15.1020     0.8460    19.6700 ca         1 RJB      -0.125500
     16 C18         16.4430     0.6630    19.9990 ca         1 RJB      -0.100000
     17 C19         16.9450    -0.6250    20.0870 ca         1 RJB      -0.071300
     18 C20         18.3320    -1.0890    20.4230 c5         1 RJB      -0.026600
     19 O1          21.6660    -3.6670    21.0000 o          1 RJB      -0.724500
     20 C2          19.3560    -3.4340    20.5320 c3         1 RJB      -0.211400
     21 C3          18.1390    -2.5640    20.8280 c5         1 RJB      -0.087000
     22 N1          17.5970    -3.8690    22.8220 ns         1 RJB      -0.517900
     23 N2          15.2870    -3.3410    25.5570 nd         1 RJB      -0.549100
     24 C14         16.1200    -1.7200    19.8410 ca         1 RJB      -0.071300
     25 C16         14.2790    -0.2480    19.4280 ca         1 RJB      -0.125500
     26 H4          17.3640    -5.0990    24.4480 h1         1 RJB       0.073200
     27 H5          17.8290    -3.4600    24.8780 h1         1 RJB       0.073200
     28 H6          13.5110    -2.5710    27.4980 ha         1 RJB       0.125000
     29 H7          11.0860    -2.2900    27.0760 ha         1 RJB       0.105000
     30 H8          10.1470    -2.7050    24.8340 ha         1 RJB       0.103000
     31 H9          11.6040    -3.4090    22.9680 ha         1 RJB       0.116000
     32 H10         16.3370    -3.8130    20.4230 hc         1 RJB       0.060950
     33 H11         17.2430    -3.3370    19.0000 hc         1 RJB       0.060950
     34 H12         14.1430    -2.3950    19.3280 ha         1 RJB       0.104500
     35 H14         14.6950     1.8480    19.6080 ha         1 RJB       0.094500
     36 H15         17.0770     1.5200    20.1940 ha         1 RJB       0.104500
     37 H17         18.9660    -1.0440    19.5290 hc         1 RJB       0.060950
     38 H16         18.8220    -0.4920    21.1890 hc         1 RJB       0.060950
     39 H2          19.1060    -4.4980    20.6230 hc         1 RJB       0.024200
     40 H1          19.6140    -3.3100    19.4760 hc         1 RJB       0.024200
     41 H3          17.9490    -4.6680    22.3240 hn         1 RJB       0.323500
     42 H13         13.2360    -0.0940    19.1810 ha         1 RJB       0.094500
     43 C1          20.6020    -3.1530    21.3940 c          1 RJB       0.712000
@<TRIPOS>BOND
     1     1     6 1   
     2     1    12 1   
     3     2    43 1   
     4     3     4 2   
     5     4    21 1   
     6     4    22 1   
     7     5     6 1   
     8     5    22 1   
     9     5    26 1   
    10     5    27 1   
    11     6    23 2   
    12     7     8 ar  
    13     7    12 ar  
    14     7    23 1   
    15     8     9 ar  
    16     8    28 1   
    17     9    10 ar  
    18     9    29 1   
    19    10    11 ar  
    20    10    30 1   
    21    11    12 ar  
    22    11    31 1   
    23    13    21 1   
    24    13    24 1   
    25    13    32 1   
    26    13    33 1   
    27    14    24 ar  
    28    14    25 ar  
    29    14    34 1   
    30    15    16 ar  
    31    15    25 ar  
    32    15    35 1   
    33    16    17 ar  
    34    16    36 1   
    35    17    18 1   
    36    17    24 ar  
    37    18    21 1   
    38    18    37 1   
    39    18    38 1   
    40    19    43 1   
    41    20    21 1   
    42    20    39 1   
    43    20    40 1   
    44    20    43 1   
    45    22    41 1   
    46    25    42 1   
@<TRIPOS>SUBSTRUCTURE
     1 RJB         1 TEMP              0 ****  ****    0 ROOT
