@<TRIPOS>MOLECULE
RJB
   43    46     1     0     0
SMALL
No Charge or Current Charge


@<TRIPOS>ATOM
      1 S1          14.3260    -3.0380    22.7680 ss         1 RJB       0.040800
      2 O2          21.1020    -2.8550    22.7900 o          1 RJB      -0.724500
      3 O3          18.0000    -2.3360    23.3550 o          1 RJB      -0.598100
      4 C4          17.9240    -3.0040    22.3320 c          1 RJB       0.650100
      5 C5          16.4990    -4.7410    23.4830 c3         1 RJB       0.084700
      6 C6          15.3230    -3.9120    23.9580 cc         1 RJB       0.421200
      7 C7          13.8670    -3.0060    25.3390 ca         1 RJB       0.106400
      8 C8          13.2270    -2.6780    26.5460 ca         1 RJB      -0.062000
      9 C9          12.1000    -1.8310    26.5250 ca         1 RJB      -0.123000
     10 C10         11.6200    -1.3200    25.3000 ca         1 RJB      -0.118000
     11 C11         12.2670    -1.6550    24.0960 ca         1 RJB      -0.071000
     12 C12         13.3860    -2.5000    24.1480 ca         1 RJB      -0.194000
     13 C13         17.5520    -3.2160    19.7110 c5         1 RJB      -0.026600
     14 C15         15.0690    -2.5650    19.2580 ca         1 RJB      -0.100000
     15 C17         14.4020    -0.3220    19.9650 ca         1 RJB      -0.125500
     16 C18         15.7080    -0.0730    20.4310 ca         1 RJB      -0.100000
     17 C19         16.6750    -1.0820    20.3020 ca         1 RJB      -0.071300
     18 C20         18.1170    -1.0280    20.7380 c5         1 RJB      -0.026600
     19 O1          21.2720    -1.1350    21.5050 o          1 RJB      -0.724500
     20 C2          19.9460    -2.9450    20.7200 c3         1 RJB      -0.211400
     21 C3          18.4330    -2.5820    20.8900 c5         1 RJB      -0.087000
     22 N1          17.2220    -4.1920    22.3190 ns         1 RJB      -0.517900
     23 N2          14.9830    -3.8300    25.2560 nd         1 RJB      -0.549100
     24 C14         16.3610    -2.2980    19.7340 ca         1 RJB      -0.071300
     25 C16         14.0830    -1.5650    19.3780 ca         1 RJB      -0.125500
     26 H4          16.1320    -5.7430    23.2260 h1         1 RJB       0.073200
     27 H5          17.2100    -4.8540    24.3120 h1         1 RJB       0.073200
     28 H6          13.6000    -3.0740    27.4880 ha         1 RJB       0.125000
     29 H7          11.5990    -1.5720    27.4550 ha         1 RJB       0.105000
     30 H8          10.7510    -0.6670    25.2870 ha         1 RJB       0.103000
     31 H9          11.9050    -1.2670    23.1450 ha         1 RJB       0.116000
     32 H10         17.3050    -4.2780    19.8130 hc         1 RJB       0.060950
     33 H11         18.0670    -3.1270    18.7470 hc         1 RJB       0.060950
     34 H12         14.8300    -3.5260    18.8080 ha         1 RJB       0.104500
     35 H14         13.6380     0.4460    20.0580 ha         1 RJB       0.094500
     36 H15         15.9610     0.8820    20.8840 ha         1 RJB       0.104500
     37 H17         18.7360    -0.5660    19.9600 hc         1 RJB       0.060950
     38 H16         18.2740    -0.4480    21.6540 hc         1 RJB       0.060950
     39 H2          20.0170    -4.0340    20.8340 hc         1 RJB       0.024200
     40 H1          20.2270    -2.6000    19.7170 hc         1 RJB       0.024200
     41 H3          17.1920    -4.7000    21.4450 hn         1 RJB       0.323500
     42 H13         13.0740    -1.7530    19.0190 ha         1 RJB       0.094500
     43 C1          20.8460    -2.2510    21.7600 c          1 RJB       0.712000
@<TRIPOS>BOND
     1     1     6 1   
     2     1    12 1   
     3     2    43 1   
     4     3     4 2   
     5     4    21 1   
     6     4    22 1   
     7     5     6 1   
     8     5    22 1   
     9     5    26 1   
    10     5    27 1   
    11     6    23 2   
    12     7     8 ar  
    13     7    12 ar  
    14     7    23 1   
    15     8     9 ar  
    16     8    28 1   
    17     9    10 ar  
    18     9    29 1   
    19    10    11 ar  
    20    10    30 1   
    21    11    12 ar  
    22    11    31 1   
    23    13    21 1   
    24    13    24 1   
    25    13    32 1   
    26    13    33 1   
    27    14    24 ar  
    28    14    25 ar  
    29    14    34 1   
    30    15    16 ar  
    31    15    25 ar  
    32    15    35 1   
    33    16    17 ar  
    34    16    36 1   
    35    17    18 1   
    36    17    24 ar  
    37    18    21 1   
    38    18    37 1   
    39    18    38 1   
    40    19    43 1   
    41    20    21 1   
    42    20    39 1   
    43    20    40 1   
    44    20    43 1   
    45    22    41 1   
    46    25    42 1   
@<TRIPOS>SUBSTRUCTURE
     1 RJB         1 TEMP              0 ****  ****    0 ROOT
