@<TRIPOS>MOLECULE
RJD
   47    49     1     0     0
SMALL
No Charge or Current Charge


@<TRIPOS>ATOM
      1 C10         29.6650    48.1860   -10.8950 cx         1 RJD       0.059700
      2 C13         25.6170    47.1300   -11.5320 c6         1 RJD       0.072000
      3 C15         25.5840    48.6690    -9.5220 c          1 RJD       0.655100
      4 C20         23.8670    49.4650    -5.3390 cx         1 RJD      -0.126900
      5 C21         24.5480    50.7810    -5.0420 cx         1 RJD      -0.126900
      6 C01         23.9270    45.6910    -9.1840 c3         1 RJD      -0.108100
      7 C02         25.4180    46.1240    -9.2300 c6         1 RJD       0.074700
      8 C03         26.3320    44.9570    -9.7260 c6         1 RJD       0.144800
      9 C05         26.6050    45.9950   -11.9600 c6         1 RJD       0.090200
     10 C06         26.3950    45.6830   -13.4700 c3         1 RJD      -0.085100
     11 C07         28.1260    46.4210   -11.7670 c          1 RJD       0.604100
     12 C11         30.1100    48.1050    -9.4560 cx         1 RJD      -0.144400
     13 C12         29.7220    49.4360   -10.0530 cx         1 RJD      -0.144400
     14 C18         25.3550    50.0370    -7.4410 c3         1 RJD       0.141000
     15 C19         25.2150    49.7730    -5.9500 cx         1 RJD      -0.152700
     16 N04         26.2570    44.7470   -11.1970 n7         1 RJD      -0.831400
     17 N09         28.3670    47.6640   -11.2120 ns         1 RJD      -0.490900
     18 N14         25.5920    47.3650   -10.0540 n          1 RJD      -0.435800
     19 N17         25.3820    48.7770    -8.1730 ns         1 RJD      -0.506900
     20 O08         29.0580    45.6890   -12.0870 o          1 RJD      -0.591100
     21 O16         25.7680    49.6500   -10.2230 o          1 RJD      -0.677100
     22 H1          30.4140    48.0560   -11.6780 h1         1 RJD       0.091700
     23 H2          25.8640    48.0530   -12.0760 h1         1 RJD       0.066200
     24 H3          24.6000    46.8580   -11.8480 h1         1 RJD       0.066200
     25 H5          23.8270    48.7230    -4.5440 hc         1 RJD       0.074200
     26 H6          24.9660    50.9230    -4.0480 hc         1 RJD       0.074200
     27 H7          24.1300    51.6790    -5.4920 hc         1 RJD       0.074200
     28 H8          23.7900    44.8170    -8.5360 hc         1 RJD       0.043367
     29 H9          23.2970    46.4960    -8.7890 hc         1 RJD       0.043367
     30 H10         23.5480    45.4310   -10.1790 hc         1 RJD       0.043367
     31 H11         25.7240    46.3200    -8.1940 h1         1 RJD       0.060700
     32 H12         26.0620    44.0280    -9.2020 h1         1 RJD       0.068200
     33 H13         27.3710    45.1850    -9.4450 h1         1 RJD       0.068200
     34 H14         27.0350    44.8550   -13.8010 hc         1 RJD       0.051367
     35 H15         25.3570    45.4020   -13.6840 hc         1 RJD       0.051367
     36 H16         26.6360    46.5540   -14.0910 hc         1 RJD       0.051367
     37 H17         29.4300    47.6540    -8.7360 hc         1 RJD       0.076450
     38 H18         31.1640    47.9210    -9.2650 hc         1 RJD       0.076450
     39 H19         30.5160    50.1480   -10.2630 hc         1 RJD       0.076450
     40 H20         28.7850    49.8820    -9.7300 hc         1 RJD       0.076450
     41 H21         26.2850    50.5880    -7.6340 h1         1 RJD       0.056200
     42 H22         24.5120    50.6410    -7.8030 h1         1 RJD       0.056200
     43 H23         26.0720    49.2410    -5.5400 hc         1 RJD       0.087700
     44 H24         25.2950    44.4780   -11.4320 hn         1 RJD       0.412000
     45 H26         27.5460    48.1990   -10.9490 hn         1 RJD       0.351500
     46 H27         25.2170    47.9210    -7.6640 hn         1 RJD       0.310500
     47 H4          22.9940    49.4820    -5.9880 hc         1 RJD       0.074200
@<TRIPOS>BOND
     1     1    12 1   
     2     1    13 1   
     3     1    17 1   
     4     1    22 1   
     5     2     9 1   
     6     2    18 1   
     7     2    23 1   
     8     2    24 1   
     9     3    18 1   
    10     3    19 1   
    11     3    21 2   
    12     4     5 1   
    13     4    15 1   
    14     4    25 1   
    15     4    47 1   
    16     5    15 1   
    17     5    26 1   
    18     5    27 1   
    19     6     7 1   
    20     6    28 1   
    21     6    29 1   
    22     6    30 1   
    23     7     8 1   
    24     7    18 1   
    25     7    31 1   
    26     8    16 1   
    27     8    32 1   
    28     8    33 1   
    29     9    10 1   
    30     9    11 1   
    31     9    16 1   
    32    10    34 1   
    33    10    35 1   
    34    10    36 1   
    35    11    17 1   
    36    11    20 2   
    37    12    13 1   
    38    12    37 1   
    39    12    38 1   
    40    13    39 1   
    41    13    40 1   
    42    14    15 1   
    43    14    19 1   
    44    14    41 1   
    45    14    42 1   
    46    15    43 1   
    47    16    44 1   
    48    17    45 1   
    49    19    46 1   
@<TRIPOS>SUBSTRUCTURE
     1 RJD         1 TEMP              0 ****  ****    0 ROOT
