@<TRIPOS>MOLECULE
RJD
   47    49     1     0     0
SMALL
abcg2


@<TRIPOS>ATOM
      1 C10         29.5520    48.3250   -10.8990 cx         1 RJD       0.059700
      2 C13         25.5300    47.0750   -11.4690 c6         1 RJD       0.072000
      3 C15         25.5910    48.4820    -9.4750 c          1 RJD       0.655100
      4 C20         24.0380    49.5870    -5.3200 cx         1 RJD      -0.126900
      5 C21         24.8460    50.8450    -5.1340 cx         1 RJD      -0.126900
      6 C01         23.7490    45.5090    -9.4090 c3         1 RJD      -0.108100
      7 C02         25.1840    46.0100    -9.2630 c6         1 RJD       0.074700
      8 C03         26.2400    44.9740    -9.6940 c6         1 RJD       0.144800
      9 C05         26.6150    46.0560   -11.8500 c6         1 RJD       0.090200
     10 C06         26.5440    45.7910   -13.3550 c3         1 RJD      -0.085100
     11 C07         28.0640    46.5170   -11.5340 c          1 RJD       0.604100
     12 C11         30.1250    48.1510    -9.5190 cx         1 RJD      -0.144400
     13 C12         29.6350    49.5020    -9.9790 cx         1 RJD      -0.144400
     14 C18         25.4310    49.9210    -7.4880 c3         1 RJD       0.141000
     15 C19         25.3760    49.7360    -5.9970 cx         1 RJD      -0.152700
     16 N04         26.3820    44.7930   -11.1360 n7         1 RJD      -0.831400
     17 N09         28.2480    47.8040   -11.1900 ns         1 RJD      -0.490900
     18 N14         25.4180    47.2440   -10.0250 n          1 RJD      -0.435800
     19 N17         25.2970    48.6320    -8.1560 ns         1 RJD      -0.506900
     20 O08         29.0030    45.7300   -11.6480 o          1 RJD      -0.591100
     21 O16         26.0380    49.4330   -10.1460 o          1 RJD      -0.677100
     22 H1          30.2460    48.2800   -11.7290 h1         1 RJD       0.091700
     23 H2          25.6960    48.0470   -11.9240 h1         1 RJD       0.066200
     24 H3          24.5830    46.6940   -11.8610 h1         1 RJD       0.066200
     25 H5          23.9600    48.9000    -4.4880 hc         1 RJD       0.074200
     26 H6          25.3200    51.0110    -4.1760 hc         1 RJD       0.074200
     27 H7          24.5000    51.7430    -5.6290 hc         1 RJD       0.074200
     28 H8          23.5980    44.6300    -8.7800 hc         1 RJD       0.043367
     29 H9          23.0410    46.2800    -9.1010 hc         1 RJD       0.043367
     30 H10         23.5210    45.2290   -10.4390 hc         1 RJD       0.043367
     31 H11         25.3790    46.2220    -8.2140 h1         1 RJD       0.060700
     32 H12         25.9980    44.0100    -9.2450 h1         1 RJD       0.068200
     33 H13         27.2080    45.2880    -9.2960 h1         1 RJD       0.068200
     34 H14         27.2920    45.0520   -13.6380 hc         1 RJD       0.051367
     35 H15         25.5540    45.4100   -13.6160 hc         1 RJD       0.051367
     36 H16         26.7200    46.7080   -13.9190 hc         1 RJD       0.051367
     37 H17         29.5130    47.6190    -8.8030 hc         1 RJD       0.076450
     38 H18         31.1910    47.9880    -9.4300 hc         1 RJD       0.076450
     39 H19         30.3640    50.2680   -10.2060 hc         1 RJD       0.076450
     40 H20         28.7060    49.8640    -9.5590 hc         1 RJD       0.076450
     41 H21         26.3820    50.3610    -7.7890 h1         1 RJD       0.056200
     42 H22         24.6390    50.6090    -7.8040 h1         1 RJD       0.056200
     43 H23         26.1900    49.1510    -5.5850 hc         1 RJD       0.087700
     44 H24         25.5520    44.3540   -11.5200 hn         1 RJD       0.412000
     45 H26         27.4600    48.4250   -11.0300 hn         1 RJD       0.351500
     46 H27         24.6740    47.9730    -7.7160 hn         1 RJD       0.310500
     47 H4          23.1550    49.6470    -5.9450 hc         1 RJD       0.074200
@<TRIPOS>BOND
     1     1    12 1   
     2     1    13 1   
     3     1    17 1   
     4     1    22 1   
     5     2     9 1   
     6     2    18 1   
     7     2    23 1   
     8     2    24 1   
     9     3    18 1   
    10     3    19 1   
    11     3    21 2   
    12     4     5 1   
    13     4    15 1   
    14     4    25 1   
    15     4    47 1   
    16     5    15 1   
    17     5    26 1   
    18     5    27 1   
    19     6     7 1   
    20     6    28 1   
    21     6    29 1   
    22     6    30 1   
    23     7     8 1   
    24     7    18 1   
    25     7    31 1   
    26     8    16 1   
    27     8    32 1   
    28     8    33 1   
    29     9    10 1   
    30     9    11 1   
    31     9    16 1   
    32    10    34 1   
    33    10    35 1   
    34    10    36 1   
    35    11    17 1   
    36    11    20 2   
    37    12    13 1   
    38    12    37 1   
    39    12    38 1   
    40    13    39 1   
    41    13    40 1   
    42    14    15 1   
    43    14    19 1   
    44    14    41 1   
    45    14    42 1   
    46    15    43 1   
    47    16    44 1   
    48    17    45 1   
    49    19    46 1   
@<TRIPOS>SUBSTRUCTURE
     1 RJD         1 TEMP              0 ****  ****    0 ROOT
