@<TRIPOS>MOLECULE
RJE
   43    45     1     0     0
SMALL
No Charge or Current Charge


@<TRIPOS>ATOM
      1 C1           2.5810    -4.1480    -1.3970 c3         1 RJE       0.229100
      2 N2           1.3000    -3.6950    -0.8210 nu         1 RJE      -0.932100
      3 C3           0.9850    -2.4160    -0.3890 ca         1 RJE       0.449900
      4 N4           1.9230    -1.4550    -0.4900 nb         1 RJE      -0.353000
      5 C5           1.6010    -0.1990    -0.0610 ca         1 RJE       0.408300
      6 O6           2.5490     0.7960    -0.1570 os         1 RJE      -0.427300
      7 C7           3.8680     0.5330    -0.6880 c3         1 RJE       0.177600
      8 C8           4.6890     1.8430    -0.6590 c3         1 RJE       0.153600
      9 O9           5.0150     2.1650     0.7100 os         1 RJE      -0.441000
     10 C10          5.7770     3.3730     0.8720 c3         1 RJE       0.144900
     11 N11          0.4070     0.1750     0.4650 nb         1 RJE      -0.229000
     12 C12         -0.4980    -0.8070     0.5450 ca         1 RJE       0.243900
     13 N13         -1.8290    -0.7490     1.0410 n          1 RJE      -0.368300
     14 C14         -2.4870     0.4580     1.5620 c3         1 RJE       0.169300
     15 C15         -3.0280     1.3570     0.4570 ca         1 RJE      -0.123300
     16 C16         -4.2730     1.0740    -0.1380 ca         1 RJE      -0.084500
     17 C17         -4.7720     1.8970    -1.1620 ca         1 RJE      -0.120000
     18 C18         -4.0290     3.0070    -1.5990 ca         1 RJE      -0.101000
     19 C19         -2.7850     3.2920    -1.0100 ca         1 RJE      -0.120000
     20 C20         -2.2850     2.4690     0.0140 ca         1 RJE      -0.084500
     21 C21         -2.4420    -2.0070     0.9440 c          1 RJE       0.596000
     22 O22         -3.5720    -2.3310     1.2660 o          1 RJE      -0.565000
     23 N23         -1.4670    -2.8030     0.3980 ns         1 RJE      -0.488600
     24 C25         -0.2660    -2.0980     0.1420 ca         1 RJE      -0.231400
     25 H11C         2.8100    -3.5890    -2.3140 h1         1 RJE       0.042700
     26 H12C         3.4010    -3.9950    -0.6820 h1         1 RJE       0.042700
     27 H13C         2.5350    -5.2170    -1.6460 h1         1 RJE       0.042700
     28 H2           0.5580    -4.3880    -0.7230 hn         1 RJE       0.497000
     29 H71C         4.3870    -0.2350    -0.1010 h1         1 RJE       0.055200
     30 H72C         3.8000     0.1840    -1.7270 h1         1 RJE       0.055200
     31 H81C         5.6070     1.6990    -1.2440 h1         1 RJE       0.032700
     32 H82C         4.1090     2.6500    -1.1260 h1         1 RJE       0.032700
     33 H101         5.2240     4.2380     0.4830 h1         1 RJE       0.029367
     34 H102         5.9860     3.5510     1.9350 h1         1 RJE       0.029367
     35 H103         6.7350     3.3040     0.3420 h1         1 RJE       0.029367
     36 H141        -3.3100     0.1630     2.2260 h1         1 RJE       0.076200
     37 H142        -1.7670     1.0180     2.1730 h1         1 RJE       0.076200
     38 H16         -4.8530     0.2140     0.1920 ha         1 RJE       0.127000
     39 H20         -1.3190     2.6960     0.4610 ha         1 RJE       0.127000
     40 H17         -5.7340     1.6740    -1.6190 ha         1 RJE       0.112000
     41 H18         -4.4150     3.6430    -2.3920 ha         1 RJE       0.110000
     42 H19         -2.2070     4.1490    -1.3490 ha         1 RJE       0.112000
     43 H23         -1.6290    -3.7880     0.2060 hn         1 RJE       0.463000
@<TRIPOS>BOND
     1     1     2 1   
     2     1    25 1   
     3     1    26 1   
     4     1    27 1   
     5     2     3 1   
     6     2    28 1   
     7     3     4 ar  
     8     3    24 ar  
     9     4     5 ar  
    10     5     6 1   
    11     5    11 ar  
    12     6     7 1   
    13     7     8 1   
    14     7    29 1   
    15     7    30 1   
    16     8     9 1   
    17     8    31 1   
    18     8    32 1   
    19     9    10 1   
    20    10    33 1   
    21    10    34 1   
    22    10    35 1   
    23    11    12 ar  
    24    12    13 1   
    25    12    24 ar  
    26    13    14 1   
    27    13    21 1   
    28    14    15 1   
    29    14    36 1   
    30    14    37 1   
    31    15    16 ar  
    32    15    20 ar  
    33    16    17 ar  
    34    16    38 1   
    35    17    18 ar  
    36    17    40 1   
    37    18    19 ar  
    38    18    41 1   
    39    19    20 ar  
    40    19    42 1   
    41    20    39 1   
    42    21    22 2   
    43    21    23 1   
    44    23    24 1   
    45    23    43 1   
@<TRIPOS>SUBSTRUCTURE
     1 RJE         1 TEMP              0 ****  ****    0 ROOT
