@<TRIPOS>MOLECULE
RJE
   43    45     1     0     0
SMALL
abcg2


@<TRIPOS>ATOM
      1 C1           2.6390    -3.8780    -1.4250 c3         1 RJE       0.229100
      2 N2           1.3280    -3.5510    -0.9180 nu         1 RJE      -0.932100
      3 C3           1.0020    -2.3370    -0.4600 ca         1 RJE       0.449900
      4 N4           1.9290    -1.3680    -0.5090 nb         1 RJE      -0.353000
      5 C5           1.6310    -0.1650    -0.0590 ca         1 RJE       0.408300
      6 O6           2.5640     0.7820    -0.1110 os         1 RJE      -0.427300
      7 C7           3.8550     0.4400    -0.6040 c3         1 RJE       0.177600
      8 C8           4.7240     1.6680    -0.5240 c3         1 RJE       0.153600
      9 O9           4.9040     2.0320     0.8190 os         1 RJE      -0.441000
     10 C10          5.7120     3.1710     0.9660 c3         1 RJE       0.144900
     11 N11          0.4840     0.2510     0.4630 nb         1 RJE      -0.229000
     12 C12         -0.4220    -0.7120     0.5050 ca         1 RJE       0.243900
     13 N13         -1.6920    -0.6140     1.0030 n          1 RJE      -0.368300
     14 C14         -2.3130     0.5900     1.5140 c3         1 RJE       0.169300
     15 C15         -3.0070     1.3760     0.4320 ca         1 RJE      -0.123300
     16 C16         -4.3430     1.1310     0.1250 ca         1 RJE      -0.084500
     17 C17         -4.9730     1.8390    -0.8890 ca         1 RJE      -0.120000
     18 C18         -4.2730     2.8000    -1.6080 ca         1 RJE      -0.101000
     19 C19         -2.9410     3.0510    -1.3060 ca         1 RJE      -0.120000
     20 C20         -2.3130     2.3420    -0.2910 ca         1 RJE      -0.084500
     21 C21         -2.3440    -1.8320     0.8730 c          1 RJE       0.596000
     22 O22         -3.4900    -2.0730     1.2080 o          1 RJE      -0.565000
     23 N23         -1.4380    -2.6800     0.3070 ns         1 RJE      -0.488600
     24 C25         -0.2460    -2.0100     0.0680 ca         1 RJE      -0.231400
     25 H11C         2.9060    -3.2630    -2.2840 h1         1 RJE       0.042700
     26 H12C         3.4130    -3.7530    -0.6660 h1         1 RJE       0.042700
     27 H13C         2.6290    -4.9180    -1.7380 h1         1 RJE       0.042700
     28 H2           0.6510    -4.2900    -0.8560 hn         1 RJE       0.497000
     29 H71C         4.2860    -0.3770    -0.0210 h1         1 RJE       0.055200
     30 H72C         3.7990     0.1080    -1.6440 h1         1 RJE       0.055200
     31 H81C         5.6820     1.4280    -1.0060 h1         1 RJE       0.032700
     32 H82C         4.2760     2.4890    -1.1020 h1         1 RJE       0.032700
     33 H101         5.2860     4.0460     0.4610 h1         1 RJE       0.029367
     34 H102         5.7900     3.3930     2.0300 h1         1 RJE       0.029367
     35 H103         6.7230     3.0150     0.5700 h1         1 RJE       0.029367
     36 H141        -3.0140     0.3030     2.2970 h1         1 RJE       0.076200
     37 H142        -1.5320     1.1870     1.9830 h1         1 RJE       0.076200
     38 H16         -4.8940     0.3830     0.6810 ha         1 RJE       0.127000
     39 H20         -1.2730     2.5390    -0.0580 ha         1 RJE       0.127000
     40 H17         -6.0130     1.6430    -1.1170 ha         1 RJE       0.112000
     41 H18         -4.7660     3.3520    -2.3980 ha         1 RJE       0.110000
     42 H19         -2.3900     3.8020    -1.8570 ha         1 RJE       0.112000
     43 H23         -1.6540    -3.6380     0.0840 hn         1 RJE       0.463000
@<TRIPOS>BOND
     1     1     2 1   
     2     1    25 1   
     3     1    26 1   
     4     1    27 1   
     5     2     3 1   
     6     2    28 1   
     7     3     4 ar  
     8     3    24 ar  
     9     4     5 ar  
    10     5     6 1   
    11     5    11 ar  
    12     6     7 1   
    13     7     8 1   
    14     7    29 1   
    15     7    30 1   
    16     8     9 1   
    17     8    31 1   
    18     8    32 1   
    19     9    10 1   
    20    10    33 1   
    21    10    34 1   
    22    10    35 1   
    23    11    12 ar  
    24    12    13 1   
    25    12    24 ar  
    26    13    14 1   
    27    13    21 1   
    28    14    15 1   
    29    14    36 1   
    30    14    37 1   
    31    15    16 ar  
    32    15    20 ar  
    33    16    17 ar  
    34    16    38 1   
    35    17    18 ar  
    36    17    40 1   
    37    18    19 ar  
    38    18    41 1   
    39    19    20 ar  
    40    19    42 1   
    41    20    39 1   
    42    21    22 2   
    43    21    23 1   
    44    23    24 1   
    45    23    43 1   
@<TRIPOS>SUBSTRUCTURE
     1 RJE         1 TEMP              0 ****  ****    0 ROOT
