@<TRIPOS>MOLECULE
RJF
   52    55     1     0     0
SMALL
abcg2


@<TRIPOS>ATOM
      1 N1         -21.9700     7.0310    30.6070 n          1 RJF      -0.418800
      2 N3         -16.8220     4.3500    26.4990 nb         1 RJF      -0.648000
      3 C4         -21.9690     5.1660    28.9800 c6         1 RJF      -0.113400
      4 C5         -20.4890     5.2950    28.6000 c          1 RJF       0.602100
      5 C6         -18.9230     5.5100    26.7440 ca         1 RJF      -0.098000
      6 C7         -18.1050     4.4180    26.9160 ca         1 RJF       0.338900
      7 C8         -16.3420     5.4030    25.8790 ca         1 RJF       0.362900
      8 C10        -16.4670     7.6610    24.9500 ca         1 RJF      -0.084000
      9 C13        -19.1580     7.8830    25.8250 ca         1 RJF      -0.071300
     10 C15        -18.4370     6.6720    26.0760 ca         1 RJF       0.004000
     11 C17        -22.3470     2.8750    29.9660 ca         1 RJF      -0.105000
     12 C20        -22.1360     3.9100    32.5430 ca         1 RJF      -0.043000
     13 C21        -22.0240     4.7580    31.4420 ca         1 RJF      -0.122600
     14 C22        -21.7630     6.2090    31.6710 c          1 RJF       0.583600
     15 O2         -21.3780     6.6300    32.7630 o          1 RJF      -0.541000
     16 C2         -21.8480     8.4670    30.7680 c3         1 RJF       0.012000
     17 C1         -20.5670     9.1030    30.2290 c          1 RJF       0.574100
     18 O          -20.5010    10.3310    30.1400 o          1 RJF      -0.624100
     19 N          -19.5700     8.2830    29.8890 ns         1 RJF      -0.496900
     20 C          -18.3170     8.7670    29.3380 c3         1 RJF       0.093300
     21 C19        -22.3610     2.5540    32.3700 ca         1 RJF      -0.104000
     22 C18        -22.4630     2.0520    31.0780 ca         1 RJF       0.143000
     23 CL         -22.7460     0.3440    30.8440 cl         1 RJF      -0.197000
     24 C16        -22.1310     4.2350    30.1500 ca         1 RJF      -0.042300
     25 C3         -22.5430     6.5350    29.3550 c6         1 RJF       0.115000
     26 O1         -19.6090     5.3470    29.4560 o          1 RJF      -0.580100
     27 N2         -20.2410     5.4060    27.2780 ns         1 RJF      -0.158000
     28 C14        -20.5790     8.1220    26.2590 c3         1 RJF      -0.044800
     29 C12        -18.5080     8.9020    25.1600 ca         1 RJF      -0.090000
     30 C11        -17.1750     8.8060    24.7180 ca         1 RJF      -0.104000
     31 C9         -17.0800     6.5830    25.6280 ca         1 RJF      -0.097000
     32 H1         -22.5300     4.7900    28.1240 hc         1 RJF       0.073700
     33 H2         -18.4980     3.5440    27.4210 h4         1 RJF       0.029100
     34 H3         -15.3120     5.3550    25.5380 h4         1 RJF       0.024100
     35 H4         -15.4390     7.5560    24.6250 ha         1 RJF       0.122000
     36 H5         -22.4250     2.4630    28.9690 ha         1 RJF       0.130000
     37 H6         -22.0480     4.3240    33.5380 ha         1 RJF       0.147000
     38 H7         -21.9070     8.7090    31.8280 h1         1 RJF       0.087200
     39 H8         -22.6820     8.9580    30.2650 h1         1 RJF       0.087200
     40 H9         -19.6890     7.2820    29.9810 hn         1 RJF       0.346500
     41 H10        -17.7320     7.9090    29.0170 h1         1 RJF       0.041700
     42 H11        -18.4980     9.4120    28.4770 h1         1 RJF       0.041700
     43 H12        -17.7490     9.3320    30.0800 h1         1 RJF       0.041700
     44 H13        -22.4570     1.8940    33.2210 ha         1 RJF       0.139000
     45 H14        -22.3320     7.2640    28.5760 h1         1 RJF       0.056700
     46 H15        -23.6300     6.4500    29.4460 h1         1 RJF       0.056700
     47 H16        -21.0180     5.3660    26.6380 hn         1 RJF       0.158000
     48 H17        -21.2750     7.4110    25.8130 hc         1 RJF       0.043700
     49 H18        -20.6800     8.0530    27.3410 hc         1 RJF       0.043700
     50 H19        -20.8880     9.1220    25.9590 hc         1 RJF       0.043700
     51 H20        -19.0500     9.8200    24.9740 ha         1 RJF       0.117000
     52 H21        -16.7220     9.6430    24.2010 ha         1 RJF       0.123000
@<TRIPOS>BOND
     1     1    14 1   
     2     1    16 1   
     3     1    25 1   
     4     2     6 ar  
     5     2     7 ar  
     6     3     4 1   
     7     3    24 1   
     8     3    25 1   
     9     3    32 1   
    10     4    26 2   
    11     4    27 1   
    12     5     6 ar  
    13     5    10 ar  
    14     5    27 1   
    15     6    33 1   
    16     7    31 ar  
    17     7    34 1   
    18     8    30 ar  
    19     8    31 ar  
    20     8    35 1   
    21     9    10 ar  
    22     9    28 1   
    23     9    29 ar  
    24    10    31 ar  
    25    11    22 ar  
    26    11    24 ar  
    27    11    36 1   
    28    12    13 ar  
    29    12    21 ar  
    30    12    37 1   
    31    13    14 1   
    32    13    24 ar  
    33    14    15 2   
    34    16    17 1   
    35    16    38 1   
    36    16    39 1   
    37    17    18 2   
    38    17    19 1   
    39    19    20 1   
    40    19    40 1   
    41    20    41 1   
    42    20    42 1   
    43    20    43 1   
    44    21    22 ar  
    45    21    44 1   
    46    22    23 1   
    47    25    45 1   
    48    25    46 1   
    49    27    47 1   
    50    28    48 1   
    51    28    49 1   
    52    28    50 1   
    53    29    30 ar  
    54    29    51 1   
    55    30    52 1   
@<TRIPOS>SUBSTRUCTURE
     1 RJF         1 TEMP              0 ****  ****    0 ROOT
