@<TRIPOS>MOLECULE
RJF
   52    55     1     0     0
SMALL
No Charge or Current Charge


@<TRIPOS>ATOM
      1 N1         -21.9330     7.0250    30.8240 n          1 RJF      -0.418800
      2 N3         -16.4360     4.8470    26.8170 nb         1 RJF      -0.648000
      3 C4         -21.8400     5.2330    29.1230 c6         1 RJF      -0.113400
      4 C5         -20.3230     5.2930    28.8520 c          1 RJF       0.602100
      5 C6         -18.6720     5.8180    26.9800 ca         1 RJF      -0.098000
      6 C7         -17.6780     4.8750    27.3390 ca         1 RJF       0.338900
      7 C8         -16.1310     5.7790    25.8950 ca         1 RJF       0.362900
      8 C10        -16.6150     7.6870    24.4880 ca         1 RJF      -0.084000
      9 C13        -19.2340     7.8450    25.5450 ca         1 RJF      -0.071300
     10 C15        -18.3510     6.8110    26.0010 ca         1 RJF       0.004000
     11 C17        -22.3690     2.8670    29.9070 ca         1 RJF      -0.105000
     12 C20        -22.6220     3.7340    32.5700 ca         1 RJF      -0.043000
     13 C21        -22.3190     4.6730    31.5590 ca         1 RJF      -0.122600
     14 C22        -22.1100     6.1330    31.9090 c          1 RJF       0.583600
     15 O2         -22.0430     6.5120    33.0710 o          1 RJF      -0.541000
     16 C2         -21.6640     8.4820    31.0550 c3         1 RJF       0.012000
     17 C1         -20.4020     9.0470    30.3690 c          1 RJF       0.574100
     18 O          -20.3000    10.2220    30.0470 o          1 RJF      -0.624100
     19 N          -19.4080     8.1320    30.1010 ns         1 RJF      -0.496900
     20 C          -18.1610     8.4410    29.3980 c3         1 RJF       0.093300
     21 C19        -22.8020     2.3770    32.2490 ca         1 RJF      -0.104000
     22 C18        -22.6750     1.9460    30.9200 ca         1 RJF       0.143000
     23 Cl         -22.8980     0.2470    30.5220 cl         1 RJF      -0.197000
     24 C16        -22.1900     4.2270    30.2210 ca         1 RJF      -0.042300
     25 C3         -22.3900     6.6250    29.4770 c6         1 RJF       0.115000
     26 O1         -19.5040     4.9910    29.7120 o          1 RJF      -0.580100
     27 N2         -19.9590     5.7130    27.5810 ns         1 RJF      -0.158000
     28 C14        -20.6560     8.0650    26.0650 c3         1 RJF      -0.044800
     29 C12        -18.7830     8.7580    24.5680 ca         1 RJF      -0.090000
     30 C11        -17.4890     8.6810    24.0400 ca         1 RJF      -0.104000
     31 C9         -17.0380     6.7630    25.4600 ca         1 RJF      -0.097000
     32 H1         -22.3260     4.9790    28.1710 hc         1 RJF       0.073700
     33 H2         -17.8900     4.0810    28.0540 h4         1 RJF       0.029100
     34 H3         -15.1210     5.7340    25.4890 h4         1 RJF       0.024100
     35 H4         -15.6080     7.6360    24.0800 ha         1 RJF       0.122000
     36 H5         -22.2680     2.5220    28.8810 ha         1 RJF       0.130000
     37 H6         -22.7200     4.0530    33.6060 ha         1 RJF       0.147000
     38 H7         -21.5480     8.6850    32.1260 h1         1 RJF       0.087200
     39 H8         -22.5230     9.0640    30.6980 h1         1 RJF       0.087200
     40 H9         -19.5640     7.1830    30.4250 hn         1 RJF       0.346500
     41 H10        -17.5590     7.5280    29.3030 h1         1 RJF       0.041700
     42 H11        -18.3880     8.8280    28.3960 h1         1 RJF       0.041700
     43 H12        -17.5940     9.1930    29.9610 h1         1 RJF       0.041700
     44 H13        -23.0370     1.6590    33.0310 ha         1 RJF       0.139000
     45 H14        -22.0800     7.3670    28.7280 h1         1 RJF       0.056700
     46 H15        -23.4900     6.5960    29.4740 h1         1 RJF       0.056700
     47 H16        -20.7290     5.9690    26.9770 hn         1 RJF       0.158000
     48 H17        -21.3060     7.2130    25.8350 hc         1 RJF       0.043700
     49 H18        -20.6570     8.2400    27.1460 hc         1 RJF       0.043700
     50 H19        -21.1260     8.9450    25.6100 hc         1 RJF       0.043700
     51 H20        -19.4420     9.5480    24.2110 ha         1 RJF       0.117000
     52 H21        -17.1620     9.3960    23.2890 ha         1 RJF       0.123000
@<TRIPOS>BOND
     1     1    14 1   
     2     1    16 1   
     3     1    25 1   
     4     2     6 ar  
     5     2     7 ar  
     6     3     4 1   
     7     3    24 1   
     8     3    25 1   
     9     3    32 1   
    10     4    26 2   
    11     4    27 1   
    12     5     6 ar  
    13     5    10 ar  
    14     5    27 1   
    15     6    33 1   
    16     7    31 ar  
    17     7    34 1   
    18     8    30 ar  
    19     8    31 ar  
    20     8    35 1   
    21     9    10 ar  
    22     9    28 1   
    23     9    29 ar  
    24    10    31 ar  
    25    11    22 ar  
    26    11    24 ar  
    27    11    36 1   
    28    12    13 ar  
    29    12    21 ar  
    30    12    37 1   
    31    13    14 1   
    32    13    24 ar  
    33    14    15 2   
    34    16    17 1   
    35    16    38 1   
    36    16    39 1   
    37    17    18 2   
    38    17    19 1   
    39    19    20 1   
    40    19    40 1   
    41    20    41 1   
    42    20    42 1   
    43    20    43 1   
    44    21    22 ar  
    45    21    44 1   
    46    22    23 1   
    47    25    45 1   
    48    25    46 1   
    49    27    47 1   
    50    28    48 1   
    51    28    49 1   
    52    28    50 1   
    53    29    30 ar  
    54    29    51 1   
    55    30    52 1   
@<TRIPOS>SUBSTRUCTURE
     1 RJF         1 TEMP              0 ****  ****    0 ROOT
