@<TRIPOS>MOLECULE
RJH
   57    60     1     0     0
SMALL
abcg2


@<TRIPOS>ATOM
      1 C1         -10.9390   -23.3470    11.6830 ca         1 RJH      -0.036000
      2 C2         -10.5100   -24.5750    11.1770 ca         1 RJH      -0.132000
      3 C3         -11.4060   -25.6070    10.9430 ca         1 RJH      -0.159000
      4 C12         -7.4320   -14.9970    13.5940 cc         1 RJH       0.391600
      5 C13         -7.7580   -15.5950    14.8180 cc         1 RJH      -0.383600
      6 C14         -8.1710   -16.8840    14.5050 cd         1 RJH       0.394500
      7 C16         -8.9200   -19.0200    14.6170 cc         1 RJH       0.409900
      8 C17         -8.8110   -19.1880    13.2220 cc         1 RJH      -0.095400
      9 C18         -8.4100   -18.1200    12.4310 cd         1 RJH       0.365000
     10 C21         -9.4120   -18.7530    10.2760 c6         1 RJH       0.194800
     11 C22         -7.3880   -17.1400     9.0670 c6         1 RJH       0.149600
     12 C23         -7.0940   -17.8980    10.3570 c6         1 RJH       0.209500
     13 C24         -6.3800   -19.2180    10.0630 c3         1 RJH       0.124600
     14 C25        -10.0890   -21.1870    12.5970 c          1 RJH       0.656100
     15 C29         -9.6080   -17.9320     9.0100 c6         1 RJH       0.142600
     16 C30        -13.2870   -27.6710    10.5140 c3         1 RJH       0.147900
     17 C4         -12.7650   -25.4490    11.2130 ca         1 RJH       0.121100
     18 C5         -13.1820   -24.2120    11.7160 ca         1 RJH       0.113000
     19 C6         -12.2990   -23.1700    11.9480 ca         1 RJH      -0.091000
     20 O7         -13.7080   -26.4050    11.0250 os         1 RJH      -0.330100
     21 CL8        -14.8780   -23.9620    12.0620 cl         1 RJH      -0.185000
     22 N9          -9.9750   -22.3450    11.8700 ns         1 RJH      -0.161000
     23 N10         -8.0570   -16.9830    13.1140 na         1 RJH       0.089900
     24 N11         -7.6210   -15.8290    12.5560 nd         1 RJH      -0.595100
     25 N15         -8.6300   -17.9050    15.2540 nd         1 RJH      -0.651000
     26 N19         -8.3620   -18.1100    11.0660 nh         1 RJH      -0.837400
     27 N20         -8.9260   -20.4610    12.6320 ns         1 RJH      -0.422100
     28 O26        -11.1140   -20.8270    13.1690 o          1 RJH      -0.610100
     29 O28         -8.3850   -17.7980     8.2880 os         1 RJH      -0.460000
     30 O31         -6.3120   -19.9990    11.2480 os         1 RJH      -0.479000
     31 C32         -5.6010   -21.2160    11.0560 c3         1 RJH       0.139900
     32 H1          -9.4590   -24.7260    10.9620 ha         1 RJH       0.110000
     33 H2         -11.0360   -26.5430    10.5510 ha         1 RJH       0.121000
     34 H3          -7.7090   -15.1600    15.8020 ha         1 RJH       0.226000
     35 H4          -9.2390   -19.8680    15.2130 h4         1 RJH       0.042100
     36 H5         -10.3350   -18.7600    10.8530 h1         1 RJH       0.056200
     37 H6          -9.1640   -19.7840    10.0110 h1         1 RJH       0.056200
     38 H7          -6.4960   -17.0790     8.4430 h1         1 RJH       0.066200
     39 H8          -7.7200   -16.1270     9.3190 h1         1 RJH       0.066200
     40 H9          -6.4590   -17.2790    10.9870 h1         1 RJH       0.098700
     41 H10         -6.9000   -19.7820     9.2810 h1         1 RJH       0.040200
     42 H11         -5.3690   -18.9930     9.7010 h1         1 RJH       0.040200
     43 H12         -6.8850   -13.4030    12.2870 hc         1 RJH       0.050700
     44 H13         -7.5570   -12.8750    13.8410 hc         1 RJH       0.050700
     45 H14         -5.9130   -13.5000    13.7630 hc         1 RJH       0.050700
     46 H15         -9.9950   -16.9390     9.2670 h1         1 RJH       0.061700
     47 H16        -10.3120   -18.4300     8.3440 h1         1 RJH       0.061700
     48 H17        -14.1870   -28.2750    10.4460 h1         1 RJH       0.043700
     49 H18        -12.8380   -27.5640     9.5240 h1         1 RJH       0.043700
     50 H19        -12.5740   -28.1480    11.1910 h1         1 RJH       0.043700
     51 H20        -12.6630   -22.2330    12.3320 ha         1 RJH       0.167000
     52 H21         -9.0620   -22.5660    11.5030 hn         1 RJH       0.145000
     53 H22         -8.1560   -20.6990    12.0180 hn         1 RJH       0.334500
     54 H23         -5.6240   -21.7550    12.0010 h1         1 RJH       0.035700
     55 H24         -6.0740   -21.8240    10.2770 h1         1 RJH       0.035700
     56 H25         -4.5620   -21.0200    10.7720 h1         1 RJH       0.035700
     57 C27         -6.9200   -13.6160    13.3550 c3         1 RJH      -0.107400
@<TRIPOS>BOND
     1     1     2 ar  
     2     1    19 ar  
     3     1    22 1   
     4     2     3 ar  
     5     2    32 1   
     6     3    17 ar  
     7     3    33 1   
     8     4     5 1   
     9     4    24 2   
    10     4    57 1   
    11     5     6 2   
    12     5    34 1   
    13     6    23 1   
    14     6    25 1   
    15     7     8 1   
    16     7    25 2   
    17     7    35 1   
    18     8     9 2   
    19     8    27 1   
    20     9    23 1   
    21     9    26 1   
    22    10    15 1   
    23    10    26 1   
    24    10    36 1   
    25    10    37 1   
    26    11    12 1   
    27    11    29 1   
    28    11    38 1   
    29    11    39 1   
    30    12    13 1   
    31    12    26 1   
    32    12    40 1   
    33    13    30 1   
    34    13    41 1   
    35    13    42 1   
    36    14    22 1   
    37    14    27 1   
    38    14    28 2   
    39    15    29 1   
    40    15    46 1   
    41    15    47 1   
    42    16    20 1   
    43    16    48 1   
    44    16    49 1   
    45    16    50 1   
    46    17    18 ar  
    47    17    20 1   
    48    18    19 ar  
    49    18    21 1   
    50    19    51 1   
    51    22    52 1   
    52    23    24 1   
    53    27    53 1   
    54    30    31 1   
    55    31    54 1   
    56    31    55 1   
    57    31    56 1   
    58    43    57 1   
    59    44    57 1   
    60    45    57 1   
@<TRIPOS>SUBSTRUCTURE
     1 RJH         1 TEMP              0 ****  ****    0 ROOT
