@<TRIPOS>MOLECULE
RJI
   27    28     1     0     0
SMALL
No Charge or Current Charge


@<TRIPOS>ATOM
      1 C6          -2.0580     1.1570     0.6040 ca         1 RJI      -0.083000
      2 C12         -3.4020     1.5510     0.7230 ca         1 RJI      -0.105500
      3 C15         -4.4190     0.7680     0.1530 ca         1 RJI      -0.097000
      4 C11         -4.0900    -0.4110    -0.5380 ca         1 RJI      -0.105500
      5 C5          -2.7470    -0.8070    -0.6570 ca         1 RJI      -0.083000
      6 C2          -1.7190    -0.0270    -0.0840 ca         1 RJI      -0.056000
      7 N1          -0.3340    -0.4230    -0.2060 n          1 RJI      -0.203000
      8 C3           0.5980     0.4830    -0.7490 c          1 RJI       0.600000
      9 O8           0.2600     1.4840    -1.3670 o          1 RJI      -0.483000
     10 C4           0.0630    -1.7290     0.1490 c          1 RJI       0.644000
     11 O10         -0.6880    -2.5500     0.6520 o          1 RJI      -0.508000
     12 N9           1.3500    -2.0720    -0.1380 ns         1 RJI      -0.466500
     13 C13          2.3240    -1.2830    -0.6480 c          1 RJI       0.599000
     14 O16          3.3350    -1.7410    -1.1480 o          1 RJI      -0.502000
     15 C7           2.0570     0.1820    -0.5590 c6         1 RJI      -0.343700
     16 C14          2.5150     0.7140     0.7690 c          1 RJI       0.626100
     17 O18          2.0310     0.3480     1.8220 o          1 RJI      -0.585100
     18 N17          3.5010     1.6320     0.7500 nt         1 RJI      -0.581000
     19 H6          -1.2810     1.7700     1.0550 ha         1 RJI       0.126500
     20 H12         -3.6550     2.4640     1.2580 ha         1 RJI       0.118000
     21 H15         -5.4590     1.0740     0.2450 ha         1 RJI       0.115000
     22 H11         -4.8770    -1.0170    -0.9830 ha         1 RJI       0.118000
     23 H5          -2.5080    -1.7170    -1.2030 ha         1 RJI       0.126500
     24 H7           2.6390     0.6950    -1.3330 hc         1 RJI       0.118700
     25 H9           1.5760    -3.0490    -0.0350 hn         1 RJI       0.353500
     26 H171         3.9030     1.9350    -0.1250 hn         1 RJI       0.328000
     27 H172         3.8350     2.0120     1.6230 hn         1 RJI       0.328000
@<TRIPOS>BOND
     1     1     2 ar  
     2     1     6 ar  
     3     1    19 1   
     4     2     3 ar  
     5     2    20 1   
     6     3     4 ar  
     7     3    21 1   
     8     4     5 ar  
     9     4    22 1   
    10     5     6 ar  
    11     5    23 1   
    12     6     7 1   
    13     7     8 1   
    14     7    10 1   
    15     8     9 2   
    16     8    15 1   
    17    10    11 2   
    18    10    12 1   
    19    12    13 1   
    20    12    25 1   
    21    13    14 2   
    22    13    15 1   
    23    15    16 1   
    24    15    24 1   
    25    16    17 2   
    26    16    18 1   
    27    18    26 1   
    28    18    27 1   
@<TRIPOS>SUBSTRUCTURE
     1 RJI         1 TEMP              0 ****  ****    0 ROOT
