@<TRIPOS>MOLECULE
RJI
   27    28     1     0     0
SMALL
abcg2


@<TRIPOS>ATOM
      1 C6          -2.1190     0.7400     0.9970 ca         1 RJI      -0.083000
      2 C12         -3.4480     1.1270     1.0970 ca         1 RJI      -0.105500
      3 C15         -4.3630     0.7290     0.1310 ca         1 RJI      -0.097000
      4 C11         -3.9510    -0.0580    -0.9370 ca         1 RJI      -0.105500
      5 C5          -2.6230    -0.4480    -1.0420 ca         1 RJI      -0.083000
      6 C2          -1.7210    -0.0470    -0.0710 ca         1 RJI      -0.056000
      7 N1          -0.3470    -0.4350    -0.1740 n          1 RJI      -0.203000
      8 C3           0.5260     0.4260    -0.8000 c          1 RJI       0.600000
      9 O8           0.1450     1.4230    -1.3580 o          1 RJI      -0.483000
     10 C4           0.0130    -1.6520     0.3870 c          1 RJI       0.644000
     11 O10         -0.7800    -2.3380     0.9770 o          1 RJI      -0.508000
     12 N9           1.3120    -2.0570     0.1880 ns         1 RJI      -0.466500
     13 C13          2.3210    -1.3390    -0.3840 c          1 RJI       0.599000
     14 O16          3.4150    -1.8050    -0.5830 o          1 RJI      -0.502000
     15 C7           1.9910     0.1020    -0.6700 c6         1 RJI      -0.343700
     16 C14          2.4860     0.8980     0.5560 c          1 RJI       0.626100
     17 O18          1.9040     0.7730     1.6180 o          1 RJI      -0.585100
     18 N17          3.5480     1.6650     0.3360 nt         1 RJI      -0.581000
     19 H6          -1.3960     1.0450     1.7430 ha         1 RJI       0.126500
     20 H12         -3.7670     1.7380     1.9300 ha         1 RJI       0.118000
     21 H15         -5.3990     1.0320     0.2100 ha         1 RJI       0.115000
     22 H11         -4.6620    -0.3680    -1.6910 ha         1 RJI       0.118000
     23 H5          -2.2940    -1.0590    -1.8730 ha         1 RJI       0.126500
     24 H7           2.4990     0.4070    -1.5850 hc         1 RJI       0.118700
     25 H9           1.5280    -2.9940     0.5070 hn         1 RJI       0.353500
     26 H171         3.9900     1.7280    -0.5650 hn         1 RJI       0.328000
     27 H172         3.9420     2.2100     1.0870 hn         1 RJI       0.328000
@<TRIPOS>BOND
     1     1     2 ar  
     2     1     6 ar  
     3     1    19 1   
     4     2     3 ar  
     5     2    20 1   
     6     3     4 ar  
     7     3    21 1   
     8     4     5 ar  
     9     4    22 1   
    10     5     6 ar  
    11     5    23 1   
    12     6     7 1   
    13     7     8 1   
    14     7    10 1   
    15     8     9 2   
    16     8    15 1   
    17    10    11 2   
    18    10    12 1   
    19    12    13 1   
    20    12    25 1   
    21    13    14 2   
    22    13    15 1   
    23    15    16 1   
    24    15    24 1   
    25    16    17 2   
    26    16    18 1   
    27    18    26 1   
    28    18    27 1   
@<TRIPOS>SUBSTRUCTURE
     1 RJI         1 TEMP              0 ****  ****    0 ROOT
