@<TRIPOS>MOLECULE
RJJ
   45    46     1     0     0
SMALL
bcc


@<TRIPOS>ATOM
      1 C10          3.4970    -1.0780     1.6410 ca         1 RJJ      -0.135000
      2 C13          3.3900     0.7280    -0.4590 ca         1 RJJ      -0.115000
      3 C15         -1.2800    -1.3810    -1.8190 c3         1 RJJ       0.164800
      4 C17          0.8840    -2.3950    -1.3890 c3         1 RJJ       0.153100
      5 C01         -4.2620     2.0090     0.5890 c3         1 RJJ      -0.079100
      6 C02         -3.5630     1.4170    -0.6270 c3         1 RJJ      -0.049400
      7 C03         -2.2630     0.6120    -0.4080 c3         1 RJJ       0.149200
      8 C04         -1.1330     1.5440     0.1000 c          1 RJJ       0.668100
      9 C07          1.2780     1.7570     0.4520 c3         1 RJJ       0.151300
     10 C08          2.4180     0.7780     0.5330 ca         1 RJJ      -0.100300
     11 C09          2.4810    -0.1370     1.5820 ca         1 RJJ      -0.115000
     12 C11          4.4670    -1.1190     0.6460 ca         1 RJJ      -0.127000
     13 C12          4.4110    -0.2130    -0.4040 ca         1 RJJ      -0.135000
     14 C14         -1.8710     0.0260    -1.8000 c3         1 RJJ      -0.113400
     15 C18         -0.7190    -2.1620     0.3920 c3         1 RJJ       0.122800
     16 C19         -1.5070    -1.1660     1.2430 c3         1 RJJ       0.180800
     17 N06          0.1090     1.0760    -0.0630 ns         1 RJJ      -0.591900
     18 N16         -0.2070    -1.6020    -0.8520 n3         1 RJJ      -0.737600
     19 N20         -2.5540    -0.3880     0.6160 n7         1 RJJ      -0.835200
     20 O05         -1.3540     2.6400     0.6030 o          1 RJJ      -0.615100
     21 H1           3.5340    -1.7810     2.4640 ha         1 RJJ       0.130000
     22 H2           3.3530     1.4310    -1.2840 ha         1 RJJ       0.133000
     23 H3          -2.0770    -2.1240    -1.6780 h1         1 RJJ       0.035200
     24 H4          -0.8920    -1.5540    -2.8240 h1         1 RJJ       0.035200
     25 H5           0.5920    -3.4260    -1.6320 h1         1 RJJ       0.037367
     26 H6           1.2670    -1.9290    -2.2960 h1         1 RJJ       0.037367
     27 H7           1.7010    -2.4320    -0.6670 h1         1 RJJ       0.037367
     28 H8          -5.2650     2.3380     0.3110 hc         1 RJJ       0.040700
     29 H9          -4.3670     1.2660     1.3790 hc         1 RJJ       0.040700
     30 H10         -3.7320     2.8650     0.9960 hc         1 RJJ       0.040700
     31 H11         -4.2620     0.7250    -1.1090 hc         1 RJJ       0.032200
     32 H12         -3.3720     2.1950    -1.3720 hc         1 RJJ       0.032200
     33 H13          1.0630     2.1700     1.4410 h1         1 RJJ       0.053700
     34 H14          1.5510     2.6010    -0.1890 h1         1 RJJ       0.053700
     35 H15          1.7240    -0.1130     2.3580 ha         1 RJJ       0.133000
     36 H16          5.2620    -1.8510     0.6910 ha         1 RJJ       0.130000
     37 H17          5.1620    -0.2380    -1.1830 ha         1 RJJ       0.130000
     38 H18         -1.1900     0.7130    -2.3100 hc         1 RJJ       0.053200
     39 H19         -2.7650    -0.0110    -2.4280 hc         1 RJJ       0.053200
     40 H20          0.1270    -2.5110     0.9920 h1         1 RJJ       0.036200
     41 H21         -1.3410    -3.0470     0.1840 h1         1 RJJ       0.036200
     42 H22         -1.9750    -1.7380     2.0480 h1         1 RJJ       0.056700
     43 H23         -0.8120    -0.4880     1.7400 h1         1 RJJ       0.056700
     44 H24          0.2210     0.1130    -0.4160 hn         1 RJJ       0.365500
     45 H26         -3.3130    -0.9800     0.3050 hn         1 RJJ       0.368800
@<TRIPOS>BOND
     1     1    11 ar  
     2     1    12 ar  
     3     1    21 1   
     4     2    10 ar  
     5     2    13 ar  
     6     2    22 1   
     7     3    14 1   
     8     3    18 1   
     9     3    23 1   
    10     3    24 1   
    11     4    18 1   
    12     4    25 1   
    13     4    26 1   
    14     4    27 1   
    15     5     6 1   
    16     5    28 1   
    17     5    29 1   
    18     5    30 1   
    19     6     7 1   
    20     6    31 1   
    21     6    32 1   
    22     7     8 1   
    23     7    14 1   
    24     7    19 1   
    25     8    17 1   
    26     8    20 2   
    27     9    10 1   
    28     9    17 1   
    29     9    33 1   
    30     9    34 1   
    31    10    11 ar  
    32    11    35 1   
    33    12    13 ar  
    34    12    36 1   
    35    13    37 1   
    36    14    38 1   
    37    14    39 1   
    38    15    16 1   
    39    15    18 1   
    40    15    40 1   
    41    15    41 1   
    42    16    19 1   
    43    16    42 1   
    44    16    43 1   
    45    17    44 1   
    46    19    45 1   
@<TRIPOS>SUBSTRUCTURE
     1 RJJ         1 TEMP              0 ****  ****    0 ROOT
