@<TRIPOS>MOLECULE
RJJ
   45    46     1     0     0
SMALL
No Charge or Current Charge


@<TRIPOS>ATOM
      1 C10          3.8260    -1.1040     1.3490 ca         1 RJJ      -0.117000
      2 C13          3.3180     0.8070    -0.6480 ca         1 RJJ      -0.097000
      3 C15         -1.0590    -1.3550    -1.7400 c3         1 RJJ       0.164800
      4 C17          0.9530    -2.5210    -0.9550 c3         1 RJJ       0.153100
      5 C01         -4.4320     2.0640     0.4090 c3         1 RJJ      -0.079100
      6 C02         -3.5530     1.5550    -0.7650 c3         1 RJJ      -0.049400
      7 C03         -2.3280     0.6340    -0.4050 c3         1 RJJ       0.149200
      8 C04         -1.1760     1.5180     0.2840 c          1 RJJ       0.601100
      9 C07          1.3120     1.6990     0.6330 c3         1 RJJ       0.151300
     10 C08          2.4930     0.7530     0.4930 ca         1 RJJ      -0.100300
     11 C09          2.7510    -0.2100     1.4890 ca         1 RJJ      -0.097000
     12 C11          4.6480    -1.0430     0.2100 ca         1 RJJ      -0.109000
     13 C12          4.3930    -0.0880    -0.7880 ca         1 RJJ      -0.117000
     14 C14         -1.8060     0.0040    -1.7490 c3         1 RJJ      -0.113400
     15 C18         -0.9120    -2.1560     0.6010 c3         1 RJJ       0.122800
     16 C19         -1.8770    -1.1850     1.3440 c3         1 RJJ       0.180800
     17 N06          0.1120     1.0800     0.0930 ns         1 RJJ      -0.524900
     18 N16         -0.1730    -1.6310    -0.5860 n3         1 RJJ      -0.737600
     19 N20         -2.8480    -0.4750     0.4650 n7         1 RJJ      -0.890400
     20 O05         -1.3750     2.5640     0.8930 o          1 RJJ      -0.615100
     21 H1           4.0200    -1.8460     2.1200 ha         1 RJJ       0.112000
     22 H2           3.1220     1.5390    -1.4290 ha         1 RJJ       0.115000
     23 H3          -1.8040    -2.1590    -1.8210 h1         1 RJJ       0.035200
     24 H4          -0.4790    -1.3940    -2.6720 h1         1 RJJ       0.035200
     25 H5           0.5870    -3.5060    -1.2770 h1         1 RJJ       0.037367
     26 H6           1.5410    -2.0850    -1.7740 h1         1 RJJ       0.037367
     27 H7           1.6290    -2.6660    -0.1020 h1         1 RJJ       0.037367
     28 H8          -5.2450     2.6880     0.0210 hc         1 RJJ       0.040700
     29 H9          -4.8890     1.2290     0.9530 hc         1 RJJ       0.040700
     30 H10         -3.8660     2.6690     1.1230 hc         1 RJJ       0.040700
     31 H11         -4.2290     1.0150    -1.4390 hc         1 RJJ       0.032200
     32 H12         -3.1900     2.4200    -1.3330 hc         1 RJJ       0.032200
     33 H13          1.1520     1.9400     1.6920 h1         1 RJJ       0.053700
     34 H14          1.5090     2.6340     0.0920 h1         1 RJJ       0.053700
     35 H15          2.1130    -0.2690     2.3680 ha         1 RJJ       0.115000
     36 H16          5.4790    -1.7370     0.1010 ha         1 RJJ       0.112000
     37 H17          5.0260    -0.0430    -1.6720 ha         1 RJJ       0.112000
     38 H18         -1.1640     0.7420    -2.2450 hc         1 RJJ       0.053200
     39 H19         -2.6440    -0.1340    -2.4420 hc         1 RJJ       0.053200
     40 H20         -0.1880    -2.5030     1.3510 h1         1 RJJ       0.036200
     41 H21         -1.4890    -3.0420     0.3020 h1         1 RJJ       0.036200
     42 H22         -2.4280    -1.7850     2.0810 h1         1 RJJ       0.056700
     43 H23         -1.2790    -0.4720     1.9260 h1         1 RJJ       0.056700
     44 H24          0.1950     0.1540    -0.3290 hn         1 RJJ       0.365500
     45 H26         -3.3290    -1.1620    -0.1250 hn         1 RJJ       0.424000
@<TRIPOS>BOND
     1     1    11 ar  
     2     1    12 ar  
     3     1    21 1   
     4     2    10 ar  
     5     2    13 ar  
     6     2    22 1   
     7     3    14 1   
     8     3    18 1   
     9     3    23 1   
    10     3    24 1   
    11     4    18 1   
    12     4    25 1   
    13     4    26 1   
    14     4    27 1   
    15     5     6 1   
    16     5    28 1   
    17     5    29 1   
    18     5    30 1   
    19     6     7 1   
    20     6    31 1   
    21     6    32 1   
    22     7     8 1   
    23     7    14 1   
    24     7    19 1   
    25     8    17 1   
    26     8    20 2   
    27     9    10 1   
    28     9    17 1   
    29     9    33 1   
    30     9    34 1   
    31    10    11 ar  
    32    11    35 1   
    33    12    13 ar  
    34    12    36 1   
    35    13    37 1   
    36    14    38 1   
    37    14    39 1   
    38    15    16 1   
    39    15    18 1   
    40    15    40 1   
    41    15    41 1   
    42    16    19 1   
    43    16    42 1   
    44    16    43 1   
    45    17    44 1   
    46    19    45 1   
@<TRIPOS>SUBSTRUCTURE
     1 RJJ         1 TEMP              0 ****  ****    0 ROOT
