@<TRIPOS>MOLECULE
RJK
   48    51     1     0     0
SMALL
No Charge or Current Charge


@<TRIPOS>ATOM
      1 C1          14.8860     0.8600    27.2540 ca         1 RJK      -0.040900
      2 C2          14.4290     1.0360    28.5710 ca         1 RJK      -0.050000
      3 C3          13.2750     0.3620    29.0060 ca         1 RJK      -0.135000
      4 C15          7.4220    -5.9470    23.3160 ca         1 RJK      -0.171000
      5 C16          7.3580    -4.8490    24.1930 ca         1 RJK       0.013000
      6 C17          6.0930    -4.4070    24.6390 ca         1 RJK      -0.131000
      7 C18          4.9200    -5.0530    24.2120 ca         1 RJK       0.151000
      8 C19          4.9920    -6.1510    23.3300 ca         1 RJK      -0.013200
      9 C20          6.2510    -6.5950    22.8870 ca         1 RJK      -0.051000
     10 C24          2.3340    -8.1710    22.5110 cc         1 RJK       0.248900
     11 C25          2.1370    -7.1050    21.6020 cc         1 RJK      -0.212300
     12 C26          3.1440    -6.2120    21.8450 cd         1 RJK      -0.109000
     13 C27          1.0350    -7.0600    20.5870 c3         1 RJK       0.235100
     14 C4          12.5830    -0.4900    28.1290 ca         1 RJK       0.145100
     15 C5          13.0320    -0.6570    26.7980 ca         1 RJK      -0.155300
     16 C6          14.1920     0.0180    26.3690 ca         1 RJK      -0.048000
     17 O7          11.4510    -1.1310    28.5870 os         1 RJK      -0.333100
     18 C8          10.8920    -2.2140    27.8100 c6         1 RJK       0.134600
     19 C9          10.8310    -1.8480    26.3070 c6         1 RJK       0.090700
     20 C10         12.2710    -1.5610    25.8250 c6         1 RJK      -0.034100
     21 N11         10.2200    -2.9270    25.5080 ns         1 RJK      -0.520900
     22 N13          8.5850    -4.2460    24.5820 ns         1 RJK      -0.162000
     23 O14          8.0440    -2.4880    25.9910 o          1 RJK      -0.611100
     24 N21          3.8410    -6.8020    22.8950 na         1 RJK       0.206000
     25 Cl2          3.3660    -4.4620    24.8070 cl         1 RJK      -0.175000
     26 N23          3.3750    -8.0320    23.3090 nd         1 RJK      -0.513800
     27 N28          0.3920    -5.7380    20.5870 n8         1 RJK      -0.996200
     28 Br2         16.4570     1.7760    26.6620 br         1 RJK      -0.107100
     29 H1          14.9660     1.6920    29.2530 ha         1 RJK       0.134000
     30 H2          12.9180     0.4950    30.0240 ha         1 RJK       0.136000
     31 H3           8.3870    -6.3040    22.9610 ha         1 RJK       0.118000
     32 H4           5.9930    -3.5670    25.3170 ha         1 RJK       0.173000
     33 H5           6.3200    -7.4440    22.2090 ha         1 RJK       0.138000
     34 H6           1.7330    -9.0660    22.6000 h4         1 RJK       0.035100
     35 H7           3.4030    -5.2630    21.3910 h4         1 RJK       0.163000
     36 H8           0.2800    -7.8250    20.8190 h1         1 RJK       0.033200
     37 H9           1.4430    -7.2610    19.5870 h1         1 RJK       0.033200
     38 H10         14.5520    -0.1070    25.3500 ha         1 RJK       0.128000
     39 H11          9.8860    -2.4390    28.1910 h1         1 RJK       0.065700
     40 H12         11.5160    -3.1080    27.9480 h1         1 RJK       0.065700
     41 H13         10.2260    -0.9350    26.1950 h1         1 RJK       0.103700
     42 H14         12.8230    -2.5050    25.7190 hc         1 RJK       0.059200
     43 H15         12.2390    -1.1050    24.8260 hc         1 RJK       0.059200
     44 H16         10.8330    -3.5410    24.9850 hn         1 RJK       0.309500
     45 H17          9.3990    -4.6900    24.1790 hn         1 RJK       0.148000
     46 H18         -0.4140    -5.7650    19.9520 hn         1 RJK       0.392000
     47 H19         -0.0270    -5.5840    21.5100 hn         1 RJK       0.392000
     48 C12          8.8710    -3.1690    25.4050 c          1 RJK       0.660100
@<TRIPOS>BOND
     1     1     2 ar  
     2     1    16 ar  
     3     1    28 1   
     4     2     3 ar  
     5     2    29 1   
     6     3    14 ar  
     7     3    30 1   
     8     4     5 ar  
     9     4     9 ar  
    10     4    31 1   
    11     5     6 ar  
    12     5    22 1   
    13     6     7 ar  
    14     6    32 1   
    15     7     8 ar  
    16     7    25 1   
    17     8     9 ar  
    18     8    24 1   
    19     9    33 1   
    20    10    11 1   
    21    10    26 2   
    22    10    34 1   
    23    11    12 2   
    24    11    13 1   
    25    12    24 1   
    26    12    35 1   
    27    13    27 1   
    28    13    36 1   
    29    13    37 1   
    30    14    15 ar  
    31    14    17 1   
    32    15    16 ar  
    33    15    20 1   
    34    16    38 1   
    35    17    18 1   
    36    18    19 1   
    37    18    39 1   
    38    18    40 1   
    39    19    20 1   
    40    19    21 1   
    41    19    41 1   
    42    20    42 1   
    43    20    43 1   
    44    21    44 1   
    45    21    48 1   
    46    22    45 1   
    47    22    48 1   
    48    23    48 2   
    49    24    26 1   
    50    27    46 1   
    51    27    47 1   
@<TRIPOS>SUBSTRUCTURE
     1 RJK         1 TEMP              0 ****  ****    0 ROOT
