@<TRIPOS>MOLECULE
RJK
   48    51     1     0     0
SMALL
abcg2


@<TRIPOS>ATOM
      1 C1          14.7520     0.7450    27.6570 ca         1 RJK      -0.040900
      2 C2          14.0770     0.9800    28.8480 ca         1 RJK      -0.050000
      3 C3          12.8690     0.3370    29.0670 ca         1 RJK      -0.135000
      4 C15          7.5720    -6.0370    23.2800 ca         1 RJK      -0.171000
      5 C16          7.6140    -4.7690    23.8780 ca         1 RJK       0.013000
      6 C17          6.4180    -4.0730    24.0720 ca         1 RJK      -0.131000
      7 C18          5.2170    -4.6520    23.6870 ca         1 RJK       0.151000
      8 C19          5.1680    -5.9060    23.0840 ca         1 RJK      -0.013200
      9 C20          6.3680    -6.5870    22.8870 ca         1 RJK      -0.051000
     10 C24          2.4650    -8.0350    22.5870 cc         1 RJK       0.248900
     11 C25          2.0480    -7.0180    21.7000 cc         1 RJK      -0.212300
     12 C26          3.0360    -6.0610    21.8000 cd         1 RJK      -0.109000
     13 C27          0.8000    -6.9750    20.8780 c3         1 RJK       0.235100
     14 C4          12.3430    -0.5270    28.1060 ca         1 RJK       0.145100
     15 C5          13.0190    -0.7540    26.9030 ca         1 RJK      -0.155300
     16 C6          14.2360    -0.1040    26.6920 ca         1 RJK      -0.048000
     17 O7          11.1380    -1.1000    28.3950 os         1 RJK      -0.333100
     18 C8          10.7520    -2.2150    27.5820 c6         1 RJK       0.134600
     19 C9          10.9610    -1.9140    26.1000 c6         1 RJK       0.090700
     20 C10         12.4430    -1.6670    25.8490 c6         1 RJK      -0.034100
     21 N11         10.4780    -3.0030    25.2740 ns         1 RJK      -0.520900
     22 N13          8.8650    -4.2820    24.2550 ns         1 RJK      -0.162000
     23 O14          8.3230    -2.2700    25.2350 o          1 RJK      -0.611100
     24 N21          3.9510    -6.5160    22.6950 na         1 RJK       0.206000
     25 CL2          3.7480    -3.7670    24.0170 cl         1 RJK      -0.175000
     26 N23          3.6130    -7.7370    23.1840 nd         1 RJK      -0.513800
     27 N28         -0.2710    -6.2290    21.5690 n8         1 RJK      -0.996200
     28 BR2         16.4270     1.6240    27.3370 br         1 RJK      -0.107100
     29 H1          14.4830     1.6480    29.5940 ha         1 RJK       0.134000
     30 H2          12.3200     0.4970    29.9860 ha         1 RJK       0.136000
     31 H3           8.4910    -6.5870    23.1220 ha         1 RJK       0.118000
     32 H4           6.4240    -3.1010    24.5340 ha         1 RJK       0.173000
     33 H5           6.3410    -7.5610    22.4200 ha         1 RJK       0.138000
     34 H6           1.9680    -8.9690    22.8070 h4         1 RJK       0.035100
     35 H7           3.1590    -5.1130    21.3040 h4         1 RJK       0.163000
     36 H8           0.5070    -8.0040    20.6340 h1         1 RJK       0.033200
     37 H9           1.0000    -6.4670    19.9320 h1         1 RJK       0.033200
     38 H10         14.7660    -0.2650    25.7630 ha         1 RJK       0.128000
     39 H11          9.7010    -2.3920    27.8020 h1         1 RJK       0.065700
     40 H12         11.3360    -3.0950    27.8700 h1         1 RJK       0.065700
     41 H13         10.3860    -1.0220    25.8480 h1         1 RJK       0.103700
     42 H14         12.9730    -2.6260    25.8680 hc         1 RJK       0.059200
     43 H15         12.5950    -1.2380    24.8570 hc         1 RJK       0.059200
     44 H16         11.0970    -3.7870    25.1330 hn         1 RJK       0.309500
     45 H17          9.6360    -4.9030    24.0600 hn         1 RJK       0.148000
     46 H18         -1.1150    -6.2590    21.0040 hn         1 RJK       0.392000
     47 H19         -0.4990    -6.7040    22.4380 hn         1 RJK       0.392000
     48 C12          9.1590    -3.1240    24.9500 c          1 RJK       0.660100
@<TRIPOS>BOND
     1     1     2 ar  
     2     1    16 ar  
     3     1    28 1   
     4     2     3 ar  
     5     2    29 1   
     6     3    14 ar  
     7     3    30 1   
     8     4     5 ar  
     9     4     9 ar  
    10     4    31 1   
    11     5     6 ar  
    12     5    22 1   
    13     6     7 ar  
    14     6    32 1   
    15     7     8 ar  
    16     7    25 1   
    17     8     9 ar  
    18     8    24 1   
    19     9    33 1   
    20    10    11 1   
    21    10    26 2   
    22    10    34 1   
    23    11    12 2   
    24    11    13 1   
    25    12    24 1   
    26    12    35 1   
    27    13    27 1   
    28    13    36 1   
    29    13    37 1   
    30    14    15 ar  
    31    14    17 1   
    32    15    16 ar  
    33    15    20 1   
    34    16    38 1   
    35    17    18 1   
    36    18    19 1   
    37    18    39 1   
    38    18    40 1   
    39    19    20 1   
    40    19    21 1   
    41    19    41 1   
    42    20    42 1   
    43    20    43 1   
    44    21    44 1   
    45    21    48 1   
    46    22    45 1   
    47    22    48 1   
    48    23    48 2   
    49    24    26 1   
    50    27    46 1   
    51    27    47 1   
@<TRIPOS>SUBSTRUCTURE
     1 RJK         1 TEMP              0 ****  ****    0 ROOT
