@<TRIPOS>MOLECULE
RJL
   39    40     1     0     0
SMALL
abcg2


@<TRIPOS>ATOM
      1 C17        -48.3940   -34.1200     2.3890 ca         1 RJL       0.263500
      2 C15        -47.3280   -34.4420     1.3760 c          1 RJL       0.519600
      3 C13        -46.3970   -36.1320    -0.1220 c3         1 RJL       0.088000
      4 C12        -46.8010   -35.7160    -1.5390 c3         1 RJL       0.080000
      5 C20        -50.2900   -33.3000     4.1570 ca         1 RJL      -0.109000
      6 C19        -49.9900   -32.5970     2.9970 ca         1 RJL       0.301900
      7 C01        -41.3430   -33.2430    -6.0000 c3         1 RJL       0.143900
      8 C03        -42.0840   -35.4150    -5.4200 ca         1 RJL       0.084100
      9 C04        -41.9900   -36.7980    -5.6130 ca         1 RJL       0.322900
     10 C06        -43.5780   -37.2270    -4.0340 ca         1 RJL       0.313900
     11 C07        -43.7570   -35.8760    -3.7740 ca         1 RJL      -0.162600
     12 C08        -42.9810   -34.9520    -4.4690 ca         1 RJL      -0.120000
     13 C09        -44.7070   -35.3570    -2.7410 c          1 RJL       0.608700
     14 C21        -49.5920   -34.4600     4.4300 ca         1 RJL      -0.176000
     15 C22        -48.6220   -34.8940     3.5310 ca         1 RJL       0.110100
     16 N05        -42.7080   -37.6720    -4.9360 nb         1 RJL      -0.643000
     17 N11        -45.8080   -36.0940    -2.5190 ns         1 RJL      -0.506900
     18 N14        -47.3500   -35.6820     0.8660 ns         1 RJL      -0.499900
     19 N18        -49.0590   -32.9980     2.1480 nb         1 RJL      -0.600000
     20 O10        -44.4790   -34.3090    -2.1550 o          1 RJL      -0.577100
     21 O16        -46.5190   -33.5920     1.0420 o          1 RJL      -0.556100
     22 O23        -47.8850   -35.9980     3.7220 oh         1 RJL      -0.524100
     23 H132       -46.3300   -37.2170    -0.0590 h1         1 RJL       0.061700
     24 H131       -45.4130   -35.7290     0.1170 h1         1 RJL       0.061700
     25 H122       -46.9620   -34.6390    -1.5790 h1         1 RJL       0.061700
     26 H121       -47.7390   -36.1970    -1.8130 h1         1 RJL       0.061700
     27 H201       -51.0500   -32.9410     4.8360 ha         1 RJL       0.127000
     28 H191       -50.5160   -31.6810     2.7530 h4         1 RJL       0.030100
     29 H013       -40.6250   -32.8190    -6.6960 h1         1 RJL       0.047033
     30 H011       -42.3350   -32.8450    -6.2280 h1         1 RJL       0.047033
     31 H012       -41.0680   -32.9500    -4.9840 h1         1 RJL       0.047033
     32 H041       -41.2940   -37.1880    -6.3500 h4         1 RJL       0.034100
     33 H061       -44.1260   -37.9860    -3.4870 h4         1 RJL       0.018100
     34 H081       -43.0970   -33.8970    -4.2610 ha         1 RJL       0.146000
     35 H211       -49.7920   -35.0260     5.3330 ha         1 RJL       0.121000
     36 H111       -45.9930   -36.9030    -3.0880 hn         1 RJL       0.317500
     37 H141       -48.0820   -36.3180     1.1380 hn         1 RJL       0.317500
     38 H231       -48.1320   -36.4370     4.5460 ho         1 RJL       0.472000
     39 O02        -41.2880   -34.6480    -6.1760 os         1 RJL      -0.333100
@<TRIPOS>BOND
     1     1     2 1   
     2     1    15 ar  
     3     1    19 ar  
     4     2    18 1   
     5     2    21 2   
     6     3     4 1   
     7     3    18 1   
     8     3    23 1   
     9     3    24 1   
    10     4    17 1   
    11     4    25 1   
    12     4    26 1   
    13     5     6 ar  
    14     5    14 ar  
    15     5    27 1   
    16     6    19 ar  
    17     6    28 1   
    18     7    29 1   
    19     7    30 1   
    20     7    31 1   
    21     7    39 1   
    22     8     9 ar  
    23     8    12 ar  
    24     8    39 1   
    25     9    16 ar  
    26     9    32 1   
    27    10    11 ar  
    28    10    16 ar  
    29    10    33 1   
    30    11    12 ar  
    31    11    13 1   
    32    12    34 1   
    33    13    17 1   
    34    13    20 2   
    35    14    15 ar  
    36    14    35 1   
    37    15    22 1   
    38    17    36 1   
    39    18    37 1   
    40    22    38 1   
@<TRIPOS>SUBSTRUCTURE
     1 RJL         1 TEMP              0 ****  ****    0 ROOT
