@<TRIPOS>MOLECULE
RJL
   39    40     1     0     0
SMALL
No Charge or Current Charge


@<TRIPOS>ATOM
      1 C17        -48.6780   -33.9350     2.4390 ca         1 RJL       0.263500
      2 C15        -47.6770   -34.0230     1.2620 c          1 RJL       0.519600
      3 C13        -45.9780   -35.4540     0.0360 c3         1 RJL       0.088000
      4 C12        -46.6480   -35.6890    -1.3360 c3         1 RJL       0.080000
      5 C20        -50.5190   -33.6180     4.5060 ca         1 RJL      -0.109000
      6 C19        -50.2630   -32.6110     3.5650 ca         1 RJL       0.301900
      7 C01        -40.8100   -33.5270    -6.0410 c3         1 RJL       0.143900
      8 C03        -42.0320   -35.6340    -5.6060 ca         1 RJL       0.084100
      9 C04        -42.2090   -37.0050    -5.8940 ca         1 RJL       0.322900
     10 C06        -43.9390   -37.2030    -4.3620 ca         1 RJL       0.313900
     11 C07        -43.8480   -35.8420    -3.9980 ca         1 RJL      -0.162600
     12 C08        -42.8700   -35.0420    -4.6370 ca         1 RJL      -0.120000
     13 C09        -44.7610   -35.2450    -2.9570 c          1 RJL       0.608700
     14 C21        -49.8260   -34.8350     4.4100 ca         1 RJL      -0.176000
     15 C22        -48.8930   -35.0080     3.3710 ca         1 RJL       0.110100
     16 N05        -43.1410   -37.7820    -5.2890 nb         1 RJL      -0.643000
     17 N11        -45.6910   -36.0870    -2.3790 ns         1 RJL      -0.506900
     18 N14        -46.9490   -35.1910     1.1060 ns         1 RJL      -0.499900
     19 N18        -49.3720   -32.7570     2.5590 nb         1 RJL      -0.600000
     20 O10        -44.6880   -34.0680    -2.6360 o          1 RJL      -0.577100
     21 O16        -47.5090   -33.0970     0.4730 o          1 RJL      -0.556100
     22 O23        -48.2360   -36.2110     3.3080 oh         1 RJL      -0.524100
     23 H132       -45.3970   -36.3450     0.3100 h1         1 RJL       0.061700
     24 H131       -45.2820   -34.6070    -0.0310 h1         1 RJL       0.061700
     25 H122       -47.1650   -34.7760    -1.6570 h1         1 RJL       0.061700
     26 H121       -47.4000   -36.4830    -1.2370 h1         1 RJL       0.061700
     27 H201       -51.2460   -33.4510     5.2960 ha         1 RJL       0.127000
     28 H191       -50.7870   -31.6570     3.6160 h4         1 RJL       0.030100
     29 H013       -39.9920   -33.1680    -6.6770 h1         1 RJL       0.047033
     30 H011       -41.7040   -32.9330    -6.2690 h1         1 RJL       0.047033
     31 H012       -40.5270   -33.3530    -4.9950 h1         1 RJL       0.047033
     32 H041       -41.5810   -37.4970    -6.6360 h4         1 RJL       0.034100
     33 H061       -44.6700   -37.8670    -3.9050 h4         1 RJL       0.018100
     34 H081       -42.7760   -33.9900    -4.3760 ha         1 RJL       0.146000
     35 H211       -50.0160   -35.6250     5.1340 ha         1 RJL       0.121000
     36 H111       -45.7030   -37.0490    -2.6950 hn         1 RJL       0.317500
     37 H141       -47.1260   -35.9210     1.7920 hn         1 RJL       0.317500
     38 H231       -48.5480   -36.7810     4.0460 ho         1 RJL       0.472000
     39 O02        -41.0500   -34.9260    -6.2800 os         1 RJL      -0.333100
@<TRIPOS>BOND
     1     1     2 1   
     2     1    15 ar  
     3     1    19 ar  
     4     2    18 1   
     5     2    21 2   
     6     3     4 1   
     7     3    18 1   
     8     3    23 1   
     9     3    24 1   
    10     4    17 1   
    11     4    25 1   
    12     4    26 1   
    13     5     6 ar  
    14     5    14 ar  
    15     5    27 1   
    16     6    19 ar  
    17     6    28 1   
    18     7    29 1   
    19     7    30 1   
    20     7    31 1   
    21     7    39 1   
    22     8     9 ar  
    23     8    12 ar  
    24     8    39 1   
    25     9    16 ar  
    26     9    32 1   
    27    10    11 ar  
    28    10    16 ar  
    29    10    33 1   
    30    11    12 ar  
    31    11    13 1   
    32    12    34 1   
    33    13    17 1   
    34    13    20 2   
    35    14    15 ar  
    36    14    35 1   
    37    15    22 1   
    38    17    36 1   
    39    18    37 1   
    40    22    38 1   
@<TRIPOS>SUBSTRUCTURE
     1 RJL         1 TEMP              0 ****  ****    0 ROOT
