@<TRIPOS>MOLECULE
RJM
   41    43     1     0     0
SMALL
No Charge or Current Charge


@<TRIPOS>ATOM
      1 C1           6.1790     5.2680    16.8740 c          1 RJM       0.746000
      2 O2           7.1930     4.6510    16.5880 o          1 RJM      -0.698000
      3 O3           5.3580     4.8810    17.6900 o          1 RJM      -0.698000
      4 C4           5.7670     8.2080    18.0880 c          1 RJM       0.637100
      5 O5           6.3800     9.2140    18.4310 o          1 RJM      -0.666100
      6 N6           5.1380     7.3610    18.9760 ns         1 RJM      -0.191000
      7 C7           5.0580     7.3750    20.3920 ca         1 RJM       0.027000
      8 C8           6.0840     7.9250    21.1880 ca         1 RJM      -0.129000
      9 C9           5.9940     7.8830    22.5890 ca         1 RJM      -0.104000
     10 C10          4.8830     7.2850    23.2010 ca         1 RJM      -0.155000
     11 C11          3.8610     6.7310    22.4140 ca         1 RJM      -0.094000
     12 C12          3.9210     6.7700    20.9990 cp         1 RJM      -0.067000
     13 C13          2.8020     6.1810    20.2000 cp         1 RJM      -0.013000
     14 C14          2.3530     4.8620    20.4550 ca         1 RJM      -0.083500
     15 C15          1.2970     4.3000    19.7170 ca         1 RJM      -0.112500
     16 C16          0.6650     5.0510    18.7120 ca         1 RJM      -0.110000
     17 C17          1.0860     6.3650    18.4510 ca         1 RJM      -0.112500
     18 C18          2.1410     6.9260    19.1900 ca         1 RJM      -0.083500
     19 C19          5.7960     6.4710    16.0220 cx         1 RJM      -0.192700
     20 C20          5.5650     7.8650    16.6190 cx         1 RJM      -0.208700
     21 C21          6.7850     7.5970    15.7470 cx         1 RJM      -0.086000
     22 C22          8.1910     7.5830    16.3610 c3         1 RJM      -0.055600
     23 C23          6.8280     8.2050    14.3460 c3         1 RJM      -0.055600
     24 H2           4.6780     6.5710    18.5370 hn         1 RJM       0.253000
     25 H3           6.9650     8.3690    20.7330 ha         1 RJM       0.124000
     26 H4           6.7890     8.3060    23.1980 ha         1 RJM       0.096000
     27 H5           4.8140     7.2480    24.2860 ha         1 RJM       0.095000
     28 H6           3.0030     6.2760    22.9030 ha         1 RJM       0.100000
     29 H7           2.8380     4.2690    21.2270 ha         1 RJM       0.112000
     30 H8           0.9700     3.2840    19.9230 ha         1 RJM       0.099500
     31 H9          -0.1530     4.6170    18.1410 ha         1 RJM       0.097000
     32 H10          0.5920     6.9510    17.6790 ha         1 RJM       0.099500
     33 H11          2.4440     7.9500    18.9890 ha         1 RJM       0.112000
     34 H12          5.1410     6.2020    15.1990 hc         1 RJM       0.064700
     35 H13          4.7620     8.4380    16.1630 hc         1 RJM       0.072700
     36 H14          8.5960     8.6000    16.4330 hc         1 RJM       0.030033
     37 H15          8.2020     7.1540    17.3700 hc         1 RJM       0.030033
     38 H16          8.8800     6.9930    15.7450 hc         1 RJM       0.030033
     39 H17          7.2040     9.2350    14.3750 hc         1 RJM       0.030033
     40 H18          7.4830     7.6240    13.6850 hc         1 RJM       0.030033
     41 H19          5.8320     8.2300    13.8860 hc         1 RJM       0.030033
@<TRIPOS>BOND
     1     1     2 1   
     2     1     3 1   
     3     1    19 1   
     4     4     5 2   
     5     4     6 1   
     6     4    20 1   
     7     6     7 1   
     8     6    24 1   
     9     7     8 ar  
    10     7    12 ar  
    11     8     9 ar  
    12     8    25 1   
    13     9    10 ar  
    14     9    26 1   
    15    10    11 ar  
    16    10    27 1   
    17    11    12 ar  
    18    11    28 1   
    19    12    13 1   
    20    13    14 ar  
    21    13    18 ar  
    22    14    15 ar  
    23    14    29 1   
    24    15    16 ar  
    25    15    30 1   
    26    16    17 ar  
    27    16    31 1   
    28    17    18 ar  
    29    17    32 1   
    30    18    33 1   
    31    19    20 1   
    32    19    21 1   
    33    19    34 1   
    34    20    21 1   
    35    20    35 1   
    36    21    22 1   
    37    21    23 1   
    38    22    36 1   
    39    22    37 1   
    40    22    38 1   
    41    23    39 1   
    42    23    40 1   
    43    23    41 1   
@<TRIPOS>SUBSTRUCTURE
     1 RJM         1 TEMP              0 ****  ****    0 ROOT
