@<TRIPOS>MOLECULE
RJM
   41    43     1     0     0
SMALL
abcg2


@<TRIPOS>ATOM
      1 C1           5.2530     5.3970    16.2550 c          1 RJM       0.746000
      2 O2           5.2090     4.5500    15.3540 o          1 RJM      -0.698000
      3 O3           5.1430     5.1540    17.4870 o          1 RJM      -0.698000
      4 C4           5.3520     8.4320    18.0100 c          1 RJM       0.637100
      5 O5           5.3840     9.6010    18.3800 o          1 RJM      -0.666100
      6 N6           5.1760     7.3870    18.8370 ns         1 RJM      -0.191000
      7 C7           5.0850     7.4860    20.2320 ca         1 RJM       0.027000
      8 C8           6.0450     8.1800    20.9680 ca         1 RJM      -0.129000
      9 C9           5.9910     8.2080    22.3520 ca         1 RJM      -0.104000
     10 C10          4.9840     7.5280    23.0240 ca         1 RJM      -0.155000
     11 C11          4.0310     6.8330    22.2980 ca         1 RJM      -0.094000
     12 C12          4.0520     6.8150    20.9030 cp         1 RJM      -0.067000
     13 C13          2.9850     6.0960    20.1690 cp         1 RJM      -0.013000
     14 C14          2.7120     4.7590    20.4510 ca         1 RJM      -0.083500
     15 C15          1.6950     4.0860    19.7860 ca         1 RJM      -0.112500
     16 C16          0.9340     4.7440    18.8300 ca         1 RJM      -0.110000
     17 C17          1.1940     6.0800    18.5470 ca         1 RJM      -0.112500
     18 C18          2.2110     6.7500    19.2090 ca         1 RJM      -0.083500
     19 C19          5.4790     6.8250    15.7820 cx         1 RJM      -0.192700
     20 C20          5.5060     8.1320    16.5520 cx         1 RJM      -0.208700
     21 C21          6.7810     7.5550    15.9810 cx         1 RJM      -0.086000
     22 C22          7.8260     6.9880    16.9130 c3         1 RJM      -0.055600
     23 C23          7.3800     8.2640    14.7900 c3         1 RJM      -0.055600
     24 H2           5.0870     6.4420    18.3810 hn         1 RJM       0.253000
     25 H3           6.8560     8.6760    20.4530 ha         1 RJM       0.124000
     26 H4           6.7470     8.7510    22.9060 ha         1 RJM       0.096000
     27 H5           4.9410     7.5390    24.1050 ha         1 RJM       0.095000
     28 H6           3.2350     6.3130    22.8170 ha         1 RJM       0.100000
     29 H7           3.3090     4.2360    21.1880 ha         1 RJM       0.112000
     30 H8           1.5020     3.0460    20.0140 ha         1 RJM       0.099500
     31 H9           0.1410     4.2210    18.3110 ha         1 RJM       0.097000
     32 H10          0.5980     6.6030    17.8100 ha         1 RJM       0.099500
     33 H11          2.3950     7.7930    18.9900 ha         1 RJM       0.112000
     34 H12          5.0680     6.9680    14.7870 hc         1 RJM       0.064700
     35 H13          5.1170     8.9650    15.9750 hc         1 RJM       0.072700
     36 H14          8.4460     7.7900    17.3210 hc         1 RJM       0.030033
     37 H15          7.4070     6.4310    17.7470 hc         1 RJM       0.030033
     38 H16          8.4850     6.3110    16.3660 hc         1 RJM       0.030033
     39 H17          8.0190     9.0910    15.1090 hc         1 RJM       0.030033
     40 H18          7.9940     7.5790    14.2010 hc         1 RJM       0.030033
     41 H19          6.6100     8.6710    14.1330 hc         1 RJM       0.030033
@<TRIPOS>BOND
     1     1     2 1   
     2     1     3 1   
     3     1    19 1   
     4     4     5 2   
     5     4     6 1   
     6     4    20 1   
     7     6     7 1   
     8     6    24 1   
     9     7     8 ar  
    10     7    12 ar  
    11     8     9 ar  
    12     8    25 1   
    13     9    10 ar  
    14     9    26 1   
    15    10    11 ar  
    16    10    27 1   
    17    11    12 ar  
    18    11    28 1   
    19    12    13 1   
    20    13    14 ar  
    21    13    18 ar  
    22    14    15 ar  
    23    14    29 1   
    24    15    16 ar  
    25    15    30 1   
    26    16    17 ar  
    27    16    31 1   
    28    17    18 ar  
    29    17    32 1   
    30    18    33 1   
    31    19    20 1   
    32    19    21 1   
    33    19    34 1   
    34    20    21 1   
    35    20    35 1   
    36    21    22 1   
    37    21    23 1   
    38    22    36 1   
    39    22    37 1   
    40    22    38 1   
    41    23    39 1   
    42    23    40 1   
    43    23    41 1   
@<TRIPOS>SUBSTRUCTURE
     1 RJM         1 TEMP              0 ****  ****    0 ROOT
