@<TRIPOS>MOLECULE
RJN
   48    51     1     0     0
SMALL
bcc


@<TRIPOS>ATOM
      1 CAY         -7.5400    -0.3860     0.0320 ca         1 RJN      -0.102000
      2 CAZ         -8.4070    -1.2910     0.6270 ca         1 RJN      -0.133500
      3 CBA         -8.0980    -2.6460     0.6380 ca         1 RJN      -0.115000
      4 CBB         -6.9200    -3.0890     0.0520 ca         1 RJN      -0.133500
      5 CBC         -6.0550    -2.1800    -0.5420 ca         1 RJN      -0.102000
      6 CAX         -6.3580    -0.8220    -0.5590 ca         1 RJN      -0.103300
      7 CAW         -5.4120     0.1600    -1.1780 c3         1 RJN       0.208700
      8 OAV         -4.5190     0.5910    -0.1430 os         1 RJN      -0.435900
      9 CAB         -3.6030     1.5070    -0.4740 c          1 RJN       0.755100
     10 OAA         -3.4820     1.9730    -1.5900 o          1 RJN      -0.596000
     11 NAC         -2.8540     1.8360     0.5940 ns         1 RJN      -0.568900
     12 CAD         -1.7680     2.7840     0.5390 c3         1 RJN       0.159300
     13 CAE         -0.4100     2.1290     0.4700 ca         1 RJN      -0.095300
     14 CAJ         -0.0820     1.2760    -0.5840 ca         1 RJN      -0.121000
     15 CAI          1.1620     0.6780    -0.6490 ca         1 RJN      -0.093000
     16 CAF          0.5410     2.3680     1.4530 ca         1 RJN      -0.121000
     17 CAG          1.7910     1.7680     1.3960 ca         1 RJN      -0.093000
     18 CAH          2.1130     0.9110     0.3470 ca         1 RJN      -0.146900
     19 CAK          3.4330     0.2650     0.2420 cc         1 RJN       0.561500
     20 NAL          3.8710    -0.1080    -0.9090 nd         1 RJN      -0.630100
     21 CAM          5.1040    -0.7070    -0.9720 ca         1 RJN       0.190400
     22 CAR          5.5850    -1.1270    -2.2200 ca         1 RJN      -0.123000
     23 CAQ          6.8210    -1.7290    -2.3180 ca         1 RJN      -0.092000
     24 CAP          7.6120    -1.9310    -1.1810 ca         1 RJN      -0.152000
     25 CAO          7.1550    -1.5220     0.0530 ca         1 RJN      -0.058000
     26 CAN          5.9040    -0.9090     0.1650 ca         1 RJN      -0.204600
     27 CAS          5.3960    -0.4840     1.4620 c          1 RJN       0.721100
     28 OAT          5.9730    -0.6100     2.5270 o          1 RJN      -0.613500
     29 NAU          4.1440     0.0890     1.3940 ns         1 RJN      -0.495400
     30 HAY         -7.7890     0.6690     0.0230 ha         1 RJN       0.133000
     31 HAZ         -9.3260    -0.9410     1.0790 ha         1 RJN       0.133000
     32 HBA         -8.7760    -3.3530     1.0980 ha         1 RJN       0.132000
     33 HBB         -6.6750    -4.1440     0.0540 ha         1 RJN       0.133000
     34 HBC         -5.1380    -2.5320    -1.0000 ha         1 RJN       0.133000
     35 HAW1        -4.8480    -0.3020    -1.9920 h1         1 RJN       0.056700
     36 HAW2        -5.9540     1.0160    -1.5860 h1         1 RJN       0.056700
     37 HAC         -3.0050     1.3470     1.4620 hn         1 RJN       0.330500
     38 HAD1        -1.9120     3.4310    -0.3260 h1         1 RJN       0.068700
     39 HAD2        -1.8220     3.4230     1.4210 h1         1 RJN       0.068700
     40 HAJ         -0.8030     1.0860    -1.3690 ha         1 RJN       0.143500
     41 HAF          0.3150     3.0350     2.2760 ha         1 RJN       0.143500
     42 HAI          1.4020     0.0220    -1.4740 ha         1 RJN       0.146000
     43 HAG          2.5110     2.0070     2.1690 ha         1 RJN       0.146000
     44 HAU          3.7250     0.3410     2.2800 hn         1 RJN       0.331500
     45 HAR          4.9710    -0.9690    -3.0970 ha         1 RJN       0.151000
     46 HAQ          7.1840    -2.0490    -3.2860 ha         1 RJN       0.135000
     47 HAP          8.5790    -2.4070    -1.2730 ha         1 RJN       0.138000
     48 HAO          7.7570    -1.6720     0.9390 ha         1 RJN       0.153000
@<TRIPOS>BOND
     1     1     2 ar  
     2     1     6 ar  
     3     1    30 1   
     4     2     3 ar  
     5     2    31 1   
     6     3     4 ar  
     7     3    32 1   
     8     4     5 ar  
     9     4    33 1   
    10     5     6 ar  
    11     5    34 1   
    12     6     7 1   
    13     7     8 1   
    14     7    35 1   
    15     7    36 1   
    16     8     9 1   
    17     9    10 2   
    18     9    11 1   
    19    11    12 1   
    20    11    37 1   
    21    12    13 1   
    22    12    38 1   
    23    12    39 1   
    24    13    14 ar  
    25    13    16 ar  
    26    14    15 ar  
    27    14    40 1   
    28    15    18 ar  
    29    15    42 1   
    30    16    17 ar  
    31    16    41 1   
    32    17    18 ar  
    33    17    43 1   
    34    18    19 1   
    35    19    20 2   
    36    19    29 1   
    37    20    21 1   
    38    21    22 ar  
    39    21    26 ar  
    40    22    23 ar  
    41    22    45 1   
    42    23    24 ar  
    43    23    46 1   
    44    24    25 ar  
    45    24    47 1   
    46    25    26 ar  
    47    25    48 1   
    48    26    27 1   
    49    27    28 2   
    50    27    29 1   
    51    29    44 1   
@<TRIPOS>SUBSTRUCTURE
     1 RJN         1 TEMP              0 ****  ****    0 ROOT
