@<TRIPOS>MOLECULE
RJN
   48    51     1     0     0
SMALL
No Charge or Current Charge


@<TRIPOS>ATOM
      1 CAY         -7.5980    -0.3850     0.0980 ca         1 RJN      -0.084000
      2 CAZ         -8.4910    -1.1950     0.8210 ca         1 RJN      -0.115500
      3 CBA         -8.1440    -2.5200     1.1340 ca         1 RJN      -0.097000
      4 CBB         -6.9030    -3.0350     0.7240 ca         1 RJN      -0.115500
      5 CBC         -6.0090    -2.2260     0.0010 ca         1 RJN      -0.084000
      6 CAX         -6.3520    -0.8970    -0.3180 ca         1 RJN      -0.103300
      7 CAW         -5.3850    -0.0200    -1.1020 c3         1 RJN       0.231900
      8 OAV         -4.5270     0.6560    -0.1690 os         1 RJN      -0.459100
      9 CAB         -3.5820     1.4910    -0.6770 c          1 RJN       0.639100
     10 OAA         -3.3970     1.7270    -1.8600 o          1 RJN      -0.547000
     11 NAC         -2.8730     2.0330     0.3540 ns         1 RJN      -0.501900
     12 CAD         -1.7570     2.9640     0.1980 c3         1 RJN       0.159300
     13 CAE         -0.4230     2.2320     0.1670 ca         1 RJN      -0.095300
     14 CAJ          0.1010     1.7610    -1.0490 ca         1 RJN      -0.103000
     15 CAI          1.3320     1.0840    -1.0800 ca         1 RJN      -0.075000
     16 CAF          0.3040     2.0230     1.3530 ca         1 RJN      -0.103000
     17 CAG          1.5350     1.3450     1.3260 ca         1 RJN      -0.075000
     18 CAH          2.0590     0.8440     0.1090 ca         1 RJN      -0.146900
     19 CAK          3.3670     0.1650     0.0590 cc         1 RJN       0.561500
     20 NAL          4.1080     0.2150    -1.0510 nd         1 RJN      -0.630100
     21 CAM          5.3290    -0.4770    -0.9790 ca         1 RJN       0.190400
     22 CAR          6.1590    -0.4500    -2.1150 ca         1 RJN      -0.105000
     23 CAQ          7.3970    -1.1170    -2.1230 ca         1 RJN      -0.074000
     24 CAP          7.8170    -1.8220    -0.9850 ca         1 RJN      -0.134000
     25 CAO          7.0000    -1.8600     0.1560 ca         1 RJN      -0.040000
     26 CAN          5.7580    -1.1880     0.1570 ca         1 RJN      -0.204600
     27 CAS          4.8740    -1.2170     1.3440 c          1 RJN       0.578600
     28 OAT          5.1340    -1.8090     2.3800 o          1 RJN      -0.538000
     29 NAU          3.7250    -0.5240     1.1880 ns         1 RJN      -0.428400
     30 HAY         -7.8730     0.6410    -0.1380 ha         1 RJN       0.115000
     31 HAZ         -9.4510    -0.7950     1.1400 ha         1 RJN       0.115000
     32 HBA         -8.8360    -3.1470     1.6940 ha         1 RJN       0.114000
     33 HBB         -6.6320    -4.0600     0.9670 ha         1 RJN       0.115000
     34 HBC         -5.0480    -2.6310    -0.3100 ha         1 RJN       0.115000
     35 HAW1        -4.7980    -0.6450    -1.7890 h1         1 RJN       0.056700
     36 HAW2        -5.9500     0.7030    -1.7050 h1         1 RJN       0.056700
     37 HAC         -3.1410     1.7350     1.2830 hn         1 RJN       0.330500
     38 HAD1        -1.8870     3.5440    -0.7250 h1         1 RJN       0.068700
     39 HAD2        -1.7710     3.6740     1.0360 h1         1 RJN       0.068700
     40 HAJ         -0.4470     1.9200    -1.9760 ha         1 RJN       0.125500
     41 HAF         -0.0830     2.3930     2.3010 ha         1 RJN       0.125500
     42 HAI          1.7120     0.7330    -2.0380 ha         1 RJN       0.128000
     43 HAG          2.0790     1.2280     2.2610 ha         1 RJN       0.128000
     44 HAU          3.0880    -0.5460     1.9680 hn         1 RJN       0.331500
     45 HAR          5.8400     0.0940    -3.0000 ha         1 RJN       0.133000
     46 HAQ          8.0270    -1.0850    -3.0090 ha         1 RJN       0.117000
     47 HAP          8.7740    -2.3390    -0.9870 ha         1 RJN       0.120000
     48 HAO          7.3320    -2.4100     1.0350 ha         1 RJN       0.135000
@<TRIPOS>BOND
     1     1     2 ar  
     2     1     6 ar  
     3     1    30 1   
     4     2     3 ar  
     5     2    31 1   
     6     3     4 ar  
     7     3    32 1   
     8     4     5 ar  
     9     4    33 1   
    10     5     6 ar  
    11     5    34 1   
    12     6     7 1   
    13     7     8 1   
    14     7    35 1   
    15     7    36 1   
    16     8     9 1   
    17     9    10 2   
    18     9    11 1   
    19    11    12 1   
    20    11    37 1   
    21    12    13 1   
    22    12    38 1   
    23    12    39 1   
    24    13    14 ar  
    25    13    16 ar  
    26    14    15 ar  
    27    14    40 1   
    28    15    18 ar  
    29    15    42 1   
    30    16    17 ar  
    31    16    41 1   
    32    17    18 ar  
    33    17    43 1   
    34    18    19 1   
    35    19    20 2   
    36    19    29 1   
    37    20    21 1   
    38    21    22 ar  
    39    21    26 ar  
    40    22    23 ar  
    41    22    45 1   
    42    23    24 ar  
    43    23    46 1   
    44    24    25 ar  
    45    24    47 1   
    46    25    26 ar  
    47    25    48 1   
    48    26    27 1   
    49    27    28 2   
    50    27    29 1   
    51    29    44 1   
@<TRIPOS>SUBSTRUCTURE
     1 RJN         1 TEMP              0 ****  ****    0 ROOT
