@<TRIPOS>MOLECULE
RJO
   49    52     1     0     0
SMALL
abcg2


@<TRIPOS>ATOM
      1 N1         -21.7600     6.8670    30.0380 n          1 RJO      -0.422800
      2 N3         -16.4820     4.2780    26.4000 nb         1 RJO      -0.654000
      3 C4         -21.8480     4.7500    28.7740 c6         1 RJO      -0.115400
      4 C5         -20.3490     4.7400    28.4650 c          1 RJO       0.604100
      5 C6         -18.7230     5.0980    26.6880 ca         1 RJO      -0.106000
      6 C7         -17.7720     4.1140    26.7800 ca         1 RJO       0.357900
      7 C8         -16.1300     5.4460    25.9110 ca         1 RJO       0.372900
      8 C10        -16.5860     7.7880    25.2580 ca         1 RJO      -0.050000
      9 C13        -19.2640     7.4550    26.0640 ca         1 RJO      -0.161000
     10 C15        -22.1430     4.0590    30.0750 ca         1 RJO      -0.038300
     11 C17        -22.6980     2.1060    31.3470 ca         1 RJO       0.144000
     12 C20        -22.0790     4.8000    31.2590 ca         1 RJO      -0.125600
     13 C21        -21.7070     6.2440    31.2470 c          1 RJO       0.578600
     14 O2         -21.3550     6.8300    32.2720 o          1 RJO      -0.538000
     15 C2         -21.4850     8.2890    29.9530 c3         1 RJO       0.014000
     16 C1         -20.0510     8.6890    29.6070 c          1 RJO       0.576100
     17 O          -19.8000     9.8800    29.4070 o          1 RJO      -0.620100
     18 N          -19.1310     7.7220    29.5500 ns         1 RJO      -0.493900
     19 C          -17.7390     7.9900    29.2380 c3         1 RJO       0.095300
     20 C19        -22.3270     4.1750    32.4810 ca         1 RJO      -0.042000
     21 C18        -22.6440     2.8270    32.5340 ca         1 RJO      -0.104000
     22 CL         -23.0910     0.4050    31.3980 cl         1 RJO      -0.197000
     23 C16        -22.4480     2.7040    30.1200 ca         1 RJO      -0.102000
     24 C3         -22.3310     6.2010    28.8660 c6         1 RJO       0.115000
     25 O1         -19.4980     4.7050    29.3480 o          1 RJO      -0.572100
     26 N2         -20.0450     4.8600    27.1500 ns         1 RJO      -0.161000
     27 C14        -18.3680     6.3690    26.1700 ca         1 RJO       0.008000
     28 C12        -18.7910     8.6370    25.5720 ca         1 RJO       0.205000
     29 F          -19.6350     9.6880    25.4790 f          1 RJO      -0.168000
     30 C11        -17.4640     8.8350    25.1590 ca         1 RJO      -0.144000
     31 C9         -17.0150     6.5390    25.7650 ca         1 RJO      -0.116000
     32 H1         -22.3850     4.2660    27.9590 hc         1 RJO       0.078700
     33 H2         -18.0430     3.1450    27.1810 h4         1 RJO       0.035100
     34 H3         -15.0940     5.5680    25.6080 h4         1 RJO       0.026100
     35 H4         -15.5540     7.9070    24.9530 ha         1 RJO       0.127000
     36 H5         -20.2940     7.3710    26.3760 ha         1 RJO       0.128000
     37 H6         -21.7190     8.7580    30.9080 h1         1 RJO       0.085700
     38 H7         -22.1310     8.7310    29.1960 h1         1 RJO       0.085700
     39 H8         -19.4000     6.7640    29.7230 hn         1 RJO       0.340500
     40 H9         -17.2390     7.0400    29.0660 h1         1 RJO       0.041033
     41 H10        -17.6600     8.6010    28.3400 h1         1 RJO       0.041033
     42 H11        -17.2430     8.5130    30.0580 h1         1 RJO       0.041033
     43 H12        -22.2700     4.7550    33.3910 ha         1 RJO       0.147000
     44 H13        -22.8440     2.3410    33.4780 ha         1 RJO       0.139000
     45 H14        -22.4930     2.1240    29.2080 ha         1 RJO       0.131000
     46 H15        -22.0360     6.7600    27.9820 h1         1 RJO       0.056200
     47 H16        -23.4240     6.2100    28.9210 h1         1 RJO       0.056200
     48 H17        -20.8040     4.9480    26.4890 hn         1 RJO       0.158000
     49 H18        -17.1620     9.8020    24.7800 ha         1 RJO       0.142000
@<TRIPOS>BOND
     1     1    13 1   
     2     1    15 1   
     3     1    24 1   
     4     2     6 ar  
     5     2     7 ar  
     6     3     4 1   
     7     3    10 1   
     8     3    24 1   
     9     3    32 1   
    10     4    25 2   
    11     4    26 1   
    12     5     6 ar  
    13     5    26 1   
    14     5    27 ar  
    15     6    33 1   
    16     7    31 ar  
    17     7    34 1   
    18     8    30 ar  
    19     8    31 ar  
    20     8    35 1   
    21     9    27 ar  
    22     9    28 ar  
    23     9    36 1   
    24    10    12 ar  
    25    10    23 ar  
    26    11    21 ar  
    27    11    22 1   
    28    11    23 ar  
    29    12    13 1   
    30    12    20 ar  
    31    13    14 2   
    32    15    16 1   
    33    15    37 1   
    34    15    38 1   
    35    16    17 2   
    36    16    18 1   
    37    18    19 1   
    38    18    39 1   
    39    19    40 1   
    40    19    41 1   
    41    19    42 1   
    42    20    21 ar  
    43    20    43 1   
    44    21    44 1   
    45    23    45 1   
    46    24    46 1   
    47    24    47 1   
    48    26    48 1   
    49    27    31 ar  
    50    28    29 1   
    51    28    30 ar  
    52    30    49 1   
@<TRIPOS>SUBSTRUCTURE
     1 RJO         1 TEMP              0 ****  ****    0 ROOT
