@<TRIPOS>MOLECULE
RJO
   49    52     1     0     0
SMALL
No Charge or Current Charge


@<TRIPOS>ATOM
      1 N1         -21.7650     6.9140    30.6120 n          1 RJO      -0.422800
      2 N3         -16.1580     4.7960    26.9040 nb         1 RJO      -0.654000
      3 C4         -21.7390     5.0610    28.9720 c6         1 RJO      -0.115400
      4 C5         -20.2160     5.0090    28.7440 c          1 RJO       0.604100
      5 C6         -18.4830     5.5380    26.9380 ca         1 RJO      -0.106000
      6 C7         -17.4130     4.7360    27.4050 ca         1 RJO       0.357900
      7 C8         -15.9200     5.6720    25.9030 ca         1 RJO       0.372900
      8 C10        -16.6040     7.4050    24.3210 ca         1 RJO      -0.050000
      9 C13        -19.2220     7.2930    25.3530 ca         1 RJO      -0.161000
     10 C15        -22.1930     4.1200    30.0900 ca         1 RJO      -0.038300
     11 C17        -22.8590     1.9030    30.8450 ca         1 RJO       0.144000
     12 C20        -22.3320     4.6190    31.4070 ca         1 RJO      -0.125600
     13 C21        -22.0320     6.0710    31.7180 c          1 RJO       0.578600
     14 O2         -21.9670     6.4820    32.8690 o          1 RJO      -0.538000
     15 C2         -21.4030     8.3560    30.8060 c3         1 RJO       0.014000
     16 C1         -20.0270     8.7820    30.2510 c          1 RJO       0.576100
     17 O          -19.7730     9.9370    29.9400 o          1 RJO      -0.620100
     18 N          -19.1090     7.7680    30.0890 ns         1 RJO      -0.493900
     19 C          -17.7730     7.9390    29.5150 c3         1 RJO       0.095300
     20 C19        -22.7310     3.7380    32.4370 ca         1 RJO      -0.042000
     21 C18        -22.9950     2.3870    32.1540 ca         1 RJO      -0.104000
     22 Cl         -23.1880     0.2110    30.4950 cl         1 RJO      -0.197000
     23 C16        -22.4570     2.7660    29.8140 ca         1 RJO      -0.102000
     24 C3         -22.1950     6.5020    29.2590 c6         1 RJO       0.115000
     25 O1         -19.4450     4.6300    29.6180 o          1 RJO      -0.572100
     26 N2         -19.7920     5.4410    27.4960 ns         1 RJO      -0.161000
     27 C14        -18.2240     6.4460    25.8860 ca         1 RJO       0.008000
     28 C12        -18.9050     8.1820    24.3140 ca         1 RJO       0.205000
     29 F          -19.8630     8.9890    23.8090 f          1 RJO      -0.168000
     30 C11        -17.6040     8.2400    23.7960 ca         1 RJO      -0.144000
     31 C9         -16.9140     6.5110    25.3650 ca         1 RJO      -0.116000
     32 H1         -22.2130     4.8110    28.0130 hc         1 RJO       0.078700
     33 H2         -17.5570     3.9990    28.1930 h4         1 RJO       0.035100
     34 H3         -14.9000     5.7000    25.5220 h4         1 RJO       0.026100
     35 H4         -15.5930     7.4540    23.9180 ha         1 RJO       0.127000
     36 H5         -20.2390     7.2810    25.7310 ha         1 RJO       0.128000
     37 H6         -21.4000     8.6120    31.8720 h1         1 RJO       0.085700
     38 H7         -22.1610     8.9830    30.3210 h1         1 RJO       0.085700
     39 H8         -19.3950     6.8430    30.3930 hn         1 RJO       0.340500
     40 H9         -17.2350     6.9840    29.5490 h1         1 RJO       0.041033
     41 H10        -17.8600     8.2670    28.4700 h1         1 RJO       0.041033
     42 H11        -17.2150     8.6900    30.0890 h1         1 RJO       0.041033
     43 H12        -22.8380     4.0990    33.4590 ha         1 RJO       0.147000
     44 H13        -23.3040     1.7140    32.9510 ha         1 RJO       0.139000
     45 H14        -22.3490     2.3790    28.8040 ha         1 RJO       0.131000
     46 H15        -21.7940     7.1920    28.5020 h1         1 RJO       0.056200
     47 H16        -23.2930     6.5560    29.2080 h1         1 RJO       0.056200
     48 H17        -20.5340     5.7530    26.8810 hn         1 RJO       0.158000
     49 H18        -17.3720     8.9330    22.9910 ha         1 RJO       0.142000
@<TRIPOS>BOND
     1     1    13 1   
     2     1    15 1   
     3     1    24 1   
     4     2     6 ar  
     5     2     7 ar  
     6     3     4 1   
     7     3    10 1   
     8     3    24 1   
     9     3    32 1   
    10     4    25 2   
    11     4    26 1   
    12     5     6 ar  
    13     5    26 1   
    14     5    27 ar  
    15     6    33 1   
    16     7    31 ar  
    17     7    34 1   
    18     8    30 ar  
    19     8    31 ar  
    20     8    35 1   
    21     9    27 ar  
    22     9    28 ar  
    23     9    36 1   
    24    10    12 ar  
    25    10    23 ar  
    26    11    21 ar  
    27    11    22 1   
    28    11    23 ar  
    29    12    13 1   
    30    12    20 ar  
    31    13    14 2   
    32    15    16 1   
    33    15    37 1   
    34    15    38 1   
    35    16    17 2   
    36    16    18 1   
    37    18    19 1   
    38    18    39 1   
    39    19    40 1   
    40    19    41 1   
    41    19    42 1   
    42    20    21 ar  
    43    20    43 1   
    44    21    44 1   
    45    23    45 1   
    46    24    46 1   
    47    24    47 1   
    48    26    48 1   
    49    27    31 ar  
    50    28    29 1   
    51    28    30 ar  
    52    30    49 1   
@<TRIPOS>SUBSTRUCTURE
     1 RJO         1 TEMP              0 ****  ****    0 ROOT
