@<TRIPOS>MOLECULE
RJP
   39    40     1     0     0
SMALL
No Charge or Current Charge


@<TRIPOS>ATOM
      1 OAA         -2.4250    -1.8580    -1.1120 o          1 RJP      -0.581100
      2 OAC          4.6440    -2.1960    -1.0230 o          1 RJP      -0.696000
      3 OAD          3.3520     3.1430    -0.6300 oh         1 RJP      -0.660000
      4 OAE          0.9420     2.3260     0.9290 o          1 RJP      -0.583100
      5 OAF          3.8760    -0.3820     1.9300 oh         1 RJP      -0.699000
      6 CAG         -0.8330    -0.8430     0.3850 c3         1 RJP      -0.157400
      7 CAH          0.0880    -0.0580    -0.5750 c3         1 RJP       0.000800
      8 CAI          2.4210    -0.7840     0.0410 c2         1 RJP      -0.040200
      9 CAJ         -7.3920     0.2150    -0.2590 ca         1 RJP      -0.151000
     10 CAK         -6.6650    -0.6150    -1.1260 ca         1 RJP      -0.085000
     11 CAL         -6.7370     0.8720     0.7940 ca         1 RJP      -0.085000
     12 CAM         -5.2820    -0.7920    -0.9410 ca         1 RJP      -0.156000
     13 CAN         -5.3550     0.6950     0.9790 ca         1 RJP      -0.156000
     14 CAO          4.2490     0.8970    -0.1250 c6         1 RJP      -0.062400
     15 NAP         -3.2190    -0.2650     0.3680 ns         1 RJP      -0.155000
     16 CAQ         -2.2290    -1.0450    -0.2160 c          1 RJP       0.608100
     17 CAR          4.8910    -1.5870     0.0090 c          1 RJP       0.704000
     18 CAS          1.4710     0.1800     0.0190 ce         1 RJP      -0.276400
     19 CAT         -4.6130    -0.1390     0.1190 ca         1 RJP      -0.004000
     20 CAU          3.2820     2.0390     0.3070 c6         1 RJP       0.073300
     21 CAV          1.8080     1.5530     0.5280 c          1 RJP       0.560300
     22 CAW          3.8540    -0.4810     0.4830 c6         1 RJP       0.031200
     23 HOAD         2.6690     3.7950    -0.3500 ho         1 RJP       0.447000
     24 HOAF         4.5750    -1.0340     2.1950 ho         1 RJP       0.482000
     25 HAG         -0.3850    -1.8250     0.5720 hc         1 RJP       0.063200
     26 HAGA        -0.9050    -0.2830     1.3260 hc         1 RJP       0.063200
     27 HAH          0.1790    -0.6160    -1.5160 hc         1 RJP       0.059700
     28 HAHA        -0.3930     0.8930    -0.8400 hc         1 RJP       0.059700
     29 HAI          2.2140    -1.7890    -0.3300 ha         1 RJP       0.176000
     30 HAJ         -8.4610     0.3510    -0.4050 ha         1 RJP       0.107000
     31 HAK         -7.1720    -1.1220    -1.9450 ha         1 RJP       0.106500
     32 HAL         -7.2980     1.5170     1.4660 ha         1 RJP       0.106500
     33 HAM         -4.7510    -1.4360    -1.6340 ha         1 RJP       0.128500
     34 HAN         -4.8580     1.2100     1.7990 ha         1 RJP       0.128500
     35 HAO          4.2400     0.8090    -1.2210 hc         1 RJP       0.066700
     36 HAOA         5.2790     1.1590     0.1500 hc         1 RJP       0.066700
     37 HNAP        -2.8840     0.3340     1.1110 hn         1 RJP       0.149000
     38 HAU          3.6050     2.3760     1.3030 h1         1 RJP       0.056700
     39 OAB          5.5710    -2.0850     0.8990 o          1 RJP      -0.696000
@<TRIPOS>BOND
     1     1    16 2   
     2     2    17 1   
     3     3    20 1   
     4     3    23 1   
     5     4    21 2   
     6     5    22 1   
     7     5    24 1   
     8     6     7 1   
     9     6    16 1   
    10     6    25 1   
    11     6    26 1   
    12     7    18 1   
    13     7    27 1   
    14     7    28 1   
    15     8    18 2   
    16     8    22 1   
    17     8    29 1   
    18     9    10 ar  
    19     9    11 ar  
    20     9    30 1   
    21    10    12 ar  
    22    10    31 1   
    23    11    13 ar  
    24    11    32 1   
    25    12    19 ar  
    26    12    33 1   
    27    13    19 ar  
    28    13    34 1   
    29    14    20 1   
    30    14    22 1   
    31    14    35 1   
    32    14    36 1   
    33    15    16 1   
    34    15    19 1   
    35    15    37 1   
    36    17    22 1   
    37    17    39 1   
    38    18    21 1   
    39    20    21 1   
    40    20    38 1   
@<TRIPOS>SUBSTRUCTURE
     1 RJP         1 TEMP              0 ****  ****    0 ROOT
