@<TRIPOS>MOLECULE
RJP
   39    40     1     0     0
SMALL
bcc


@<TRIPOS>ATOM
      1 OAA         -2.4510    -0.8740    -1.5590 o          1 RJP      -0.581100
      2 OAC          4.9320    -1.7180    -1.2130 o          1 RJP      -0.801300
      3 OAD          3.6150     3.1300     0.1930 oh         1 RJP      -0.597800
      4 OAE          1.2840     2.3340    -0.8940 o          1 RJP      -0.583100
      5 OAF          3.7450    -0.7450     1.9720 oh         1 RJP      -0.636800
      6 CAG         -0.8800     0.0210     0.0260 c3         1 RJP      -0.157400
      7 CAH          0.2320    -0.3190    -0.9600 c3         1 RJP       0.000800
      8 CAI          2.4630    -0.8770     0.0030 c2         1 RJP       0.009800
      9 CAJ         -7.4410    -0.1800     0.1230 ca         1 RJP      -0.169000
     10 CAK         -6.6730    -0.6460    -0.9330 ca         1 RJP      -0.103000
     11 CAL         -6.7990     0.3630     1.2290 ca         1 RJP      -0.103000
     12 CAM         -5.2860    -0.5810    -0.9060 ca         1 RJP      -0.174000
     13 CAN         -5.4180     0.4350     1.2720 ca         1 RJP      -0.174000
     14 CAO          4.2740     0.8300     0.2050 c6         1 RJP      -0.062400
     15 NAP         -3.2570     0.0910     0.3380 ns         1 RJP      -0.481100
     16 CAQ         -2.2620    -0.3070    -0.4980 c          1 RJP       0.675100
     17 CAR          4.8470    -1.6140     0.0170 c          1 RJP       0.914600
     18 CAS          1.5850     0.0420    -0.4160 ce         1 RJP      -0.276400
     19 CAT         -4.6430    -0.0340     0.2060 ca         1 RJP       0.088600
     20 CAU          3.1660     1.8340     0.4700 c6         1 RJP       0.050100
     21 CAV          1.9470     1.4700    -0.3540 c          1 RJP       0.560300
     22 CAW          3.8250    -0.5830     0.5750 c6         1 RJP       0.008000
     23 HOAD         2.8460     3.6820     0.0110 ho         1 RJP       0.408000
     24 HOAF         4.4490    -1.4030     2.1390 ho         1 RJP       0.443000
     25 HAG         -0.7250    -0.5260     0.9630 hc         1 RJP       0.063200
     26 HAGA        -0.8500     1.0810     0.2920 hc         1 RJP       0.063200
     27 HAH          0.2130    -1.3870    -1.1820 hc         1 RJP       0.059700
     28 HAHA         0.0600     0.2000    -1.9050 hc         1 RJP       0.059700
     29 HAI          2.1700    -1.9230    -0.0290 ha         1 RJP       0.126000
     30 HAJ         -8.5200    -0.2370     0.0870 ha         1 RJP       0.125000
     31 HAK         -7.1550    -1.0720    -1.8040 ha         1 RJP       0.124500
     32 HAL         -7.3730     0.7340     2.0680 ha         1 RJP       0.124500
     33 HAM         -4.7230    -0.9540    -1.7460 ha         1 RJP       0.146500
     34 HAN         -4.9310     0.8610     2.1410 ha         1 RJP       0.146500
     35 HAO          4.5420     0.8640    -0.8530 hc         1 RJP       0.066700
     36 HAOA         5.1660     1.0930     0.7780 hc         1 RJP       0.066700
     37 HNAP        -2.9560     0.5400     1.1900 hn         1 RJP       0.315500
     38 HAU          2.8490     1.7390     1.5220 h1         1 RJP       0.056700
     39 OAB          5.4840    -2.2350     0.8940 o          1 RJP      -0.801300
@<TRIPOS>BOND
     1     1    16 2   
     2     2    17 1   
     3     3    20 1   
     4     3    23 1   
     5     4    21 2   
     6     5    22 1   
     7     5    24 1   
     8     6     7 1   
     9     6    16 1   
    10     6    25 1   
    11     6    26 1   
    12     7    18 1   
    13     7    27 1   
    14     7    28 1   
    15     8    18 2   
    16     8    22 1   
    17     8    29 1   
    18     9    10 ar  
    19     9    11 ar  
    20     9    30 1   
    21    10    12 ar  
    22    10    31 1   
    23    11    13 ar  
    24    11    32 1   
    25    12    19 ar  
    26    12    33 1   
    27    13    19 ar  
    28    13    34 1   
    29    14    20 1   
    30    14    22 1   
    31    14    35 1   
    32    14    36 1   
    33    15    16 1   
    34    15    19 1   
    35    15    37 1   
    36    17    22 1   
    37    17    39 1   
    38    18    21 1   
    39    20    21 1   
    40    20    38 1   
@<TRIPOS>SUBSTRUCTURE
     1 RJP         1 TEMP              0 ****  ****    0 ROOT
