@<TRIPOS>MOLECULE
RJQ
   89    95     1     0     0
SMALL
No Charge or Current Charge


@<TRIPOS>ATOM
      1 N           -2.1550    19.2810    19.3840 ns         1 RJQ      -0.500900
      2 CA          -0.6880    19.0610    19.3420 c3         1 RJQ       0.039700
      3 C            0.0680    20.4100    19.5620 c          1 RJQ       0.601100
      4 O           -0.4890    21.4790    19.3230 o          1 RJQ      -0.613100
      5 CB          -0.2720    18.3980    17.9980 c3         1 RJQ      -0.047100
      6 CG          -1.0360    17.1090    17.6860 ca         1 RJQ      -0.065300
      7 CD1         -0.6940    15.8740    18.2880 ca         1 RJQ       0.139000
      8 CD2         -2.1180    17.1520    16.7810 ca         1 RJQ      -0.101000
      9 CE1         -1.4250    14.7130    17.9840 ca         1 RJQ      -0.098000
     10 CE2         -2.8470    15.9880    16.4830 ca         1 RJQ      -0.111000
     11 CZ          -2.5010    14.7670    17.0840 ca         1 RJQ      -0.100000
     12 CAK         -3.0720    18.4200    19.9400 c          1 RJQ       0.606100
     13 CAM         -4.5230    18.8550    19.7940 c3         1 RJQ      -0.178100
     14 CAQ          2.1150    19.1640    20.4680 c5         1 RJQ       0.106000
     15 CAR          3.5950    19.5880    20.3130 c5         1 RJQ      -0.094400
     16 CAS          3.5530    21.0500    20.8160 c5         1 RJQ      -0.075400
     17 CAT          2.2590    21.6090    20.1320 c5         1 RJQ       0.078600
     18 CAU          2.6180    22.2990    18.7630 c          1 RJQ       0.581000
     19 CAX          1.5990    22.5840    21.1080 c2         1 RJQ      -0.188200
     20 CAY          2.0540    23.8490    21.1550 c2         1 RJQ      -0.220200
     21 CAZ          3.2350    24.2600    20.2790 c5         1 RJQ       0.148900
     22 CBA          3.1190    25.7460    19.8630 c5         1 RJQ      -0.089400
     23 CBB          4.0100    25.7710    18.5950 c5         1 RJQ      -0.085400
     24 CBC          3.5520    24.4810    17.8370 c5         1 RJQ       0.036700
     25 CBD          4.7490    23.9320    16.9800 c          1 RJQ       0.616100
     26 CBG          6.3240    24.6020    15.1080 c5         1 RJQ       0.034700
     27 CBH          7.6350    24.8250    15.9210 c          1 RJQ       0.583000
     28 CBK         10.1490    24.7640    15.7180 c5         1 RJQ       0.027700
     29 CBL         10.7730    26.1930    15.5950 c          1 RJQ       0.600100
     30 CBN         10.9480    23.7220    14.8790 c5         1 RJQ      -0.083400
     31 CBO         10.3080    23.8930    13.4830 c5         1 RJQ      -0.092400
     32 CBP          8.7880    23.9320    13.8190 c5         1 RJQ       0.162900
     33 CBQ          8.1130    24.7400    12.6980 c2         1 RJQ      -0.232200
     34 CBR          7.0100    25.5150    12.8040 c2         1 RJQ      -0.181200
     35 CBS          6.2220    25.7650    14.0880 c5         1 RJQ      -0.046500
     36 CBT          4.7070    25.7440    13.7650 c5         1 RJQ      -0.091400
     37 CBU          4.0750    25.6220    15.1750 c5         1 RJQ       0.110000
     38 NAP          1.4180    20.3810    19.9970 n          1 RJQ      -0.387800
     39 NAW          3.1300    23.6020    18.9620 n          1 RJQ      -0.383800
     40 NBF          5.0610    24.7690    15.8800 n          1 RJQ      -0.397800
     41 NBJ          8.7860    24.6330    15.1280 n          1 RJQ      -0.396800
     42 OAL         -2.7490    17.3910    20.5150 o          1 RJQ      -0.606100
     43 OAV          2.4580    21.8250    17.6420 o          1 RJQ      -0.570000
     44 OBE          5.4300    22.9460    17.2450 o          1 RJQ      -0.596100
     45 OBI          7.7070    25.1830    17.0930 o          1 RJQ      -0.555000
     46 OBM         10.2400    27.1740    15.1000 o          1 RJQ      -0.593100
     47 Cl1          0.6480    15.7450    19.4260 cl         1 RJQ      -0.215000
     48 H           -2.5210    20.1320    18.9700 hn         1 RJQ       0.328500
     49 HA          -0.4150    18.3980    20.1720 h1         1 RJQ       0.100700
     50 HB1          0.8070    18.2100    17.9830 hc         1 RJQ       0.071700
     51 HB2         -0.4390    19.1260    17.1940 hc         1 RJQ       0.071700
     52 HD2         -2.4000    18.0910    16.3110 ha         1 RJQ       0.113000
     53 HE1         -1.1560    13.7680    18.4510 ha         1 RJQ       0.129000
     54 HE2         -3.6810    16.0340    15.7850 ha         1 RJQ       0.115000
     55 HZ          -3.0650    13.8660    16.8530 ha         1 RJQ       0.117000
     56 HAM         -5.2230    18.1530    20.2600 hc         1 RJQ       0.059700
     57 HZL         -4.6360    19.8680    20.1970 hc         1 RJQ       0.059700
     58 HZM         -4.7440    19.0000    18.7310 hc         1 RJQ       0.059700
     59 HAQ          1.8610    18.9530    21.5150 h1         1 RJQ       0.054700
     60 HZN          1.8990    18.2720    19.8710 h1         1 RJQ       0.054700
     61 HAR          4.2740    18.9570    20.8960 hc         1 RJQ       0.065200
     62 HZO          3.9140    19.5360    19.2650 hc         1 RJQ       0.065200
     63 HAS          3.4730    21.0730    21.9090 hc         1 RJQ       0.064700
     64 HZP          4.4590    21.6070    20.5510 hc         1 RJQ       0.064700
     65 HAX          0.7670    22.2720    21.7420 ha         1 RJQ       0.191000
     66 HAY          1.5980    24.5690    21.8380 ha         1 RJQ       0.190000
     67 HAZ          4.2020    24.0440    20.7540 h1         1 RJQ       0.069700
     68 HZQ          3.4710    26.4290    20.6450 hc         1 RJQ       0.059200
     69 HBA          2.0840    26.0210    19.6230 hc         1 RJQ       0.059200
     70 HZR          5.0720    25.7190    18.8680 hc         1 RJQ       0.067200
     71 HBB          3.8740    26.6830    18.0040 hc         1 RJQ       0.067200
     72 HBC          2.6890    24.6770    17.1890 h1         1 RJQ       0.077700
     73 HBG          6.3400    23.6170    14.6260 h1         1 RJQ       0.080700
     74 HBK         10.1650    24.4920    16.7820 h1         1 RJQ       0.082700
     75 HBN         10.7850    22.7070    15.2600 hc         1 RJQ       0.057200
     76 HZV         12.0310    23.8920    14.8740 hc         1 RJQ       0.057200
     77 HBO         10.5610    23.0750    12.7990 hc         1 RJQ       0.062200
     78 HZU         10.6490    24.8250    13.0150 hc         1 RJQ       0.062200
     79 HBP          8.3760    22.9180    13.9130 h1         1 RJQ       0.060700
     80 HBQ          8.5570    24.6650    11.7030 ha         1 RJQ       0.177000
     81 HBR          6.6640    26.0150    11.8960 ha         1 RJQ       0.178000
     82 HBS          6.5030    26.7260    14.5380 hc         1 RJQ       0.090700
     83 HZT          4.3700    26.6410    13.2340 hc         1 RJQ       0.059700
     84 HBT          4.4420    24.8780    13.1470 hc         1 RJQ       0.059700
     85 HZS          3.9930    26.6040    15.6600 h1         1 RJQ       0.053200
     86 HBU          3.0770    25.1680    15.1230 h1         1 RJQ       0.053200
     87 HZW         12.4820    27.2080    16.0800 hn         1 RJQ       0.312500
     88 HBV         12.4710    25.5160    16.5390 hn         1 RJQ       0.312500
     89 NBV         12.0170    26.3130    16.1170 nt         1 RJQ      -0.610000
@<TRIPOS>BOND
     1     1     2 1   
     2     1    12 1   
     3     1    48 1   
     4     2     3 1   
     5     2     5 1   
     6     2    49 1   
     7     3     4 2   
     8     3    38 1   
     9     5     6 1   
    10     5    50 1   
    11     5    51 1   
    12     6     7 ar  
    13     6     8 ar  
    14     7     9 ar  
    15     7    47 1   
    16     8    10 ar  
    17     8    52 1   
    18     9    11 ar  
    19     9    53 1   
    20    10    11 ar  
    21    10    54 1   
    22    11    55 1   
    23    12    13 1   
    24    12    42 2   
    25    13    56 1   
    26    13    57 1   
    27    13    58 1   
    28    14    15 1   
    29    14    38 1   
    30    14    59 1   
    31    14    60 1   
    32    15    16 1   
    33    15    61 1   
    34    15    62 1   
    35    16    17 1   
    36    16    63 1   
    37    16    64 1   
    38    17    18 1   
    39    17    19 1   
    40    17    38 1   
    41    18    39 1   
    42    18    43 2   
    43    19    20 2   
    44    19    65 1   
    45    20    21 1   
    46    20    66 1   
    47    21    22 1   
    48    21    39 1   
    49    21    67 1   
    50    22    23 1   
    51    22    68 1   
    52    22    69 1   
    53    23    24 1   
    54    23    70 1   
    55    23    71 1   
    56    24    25 1   
    57    24    39 1   
    58    24    72 1   
    59    25    40 1   
    60    25    44 2   
    61    26    27 1   
    62    26    35 1   
    63    26    40 1   
    64    26    73 1   
    65    27    41 1   
    66    27    45 2   
    67    28    29 1   
    68    28    30 1   
    69    28    41 1   
    70    28    74 1   
    71    29    46 2   
    72    29    89 1   
    73    30    31 1   
    74    30    75 1   
    75    30    76 1   
    76    31    32 1   
    77    31    77 1   
    78    31    78 1   
    79    32    33 1   
    80    32    41 1   
    81    32    79 1   
    82    33    34 2   
    83    33    80 1   
    84    34    35 1   
    85    34    81 1   
    86    35    36 1   
    87    35    82 1   
    88    36    37 1   
    89    36    83 1   
    90    36    84 1   
    91    37    40 1   
    92    37    85 1   
    93    37    86 1   
    94    87    89 1   
    95    88    89 1   
@<TRIPOS>SUBSTRUCTURE
     1 RJQ         1 TEMP              0 ****  ****    0 ROOT
