@<TRIPOS>MOLECULE
RJQ
   89    95     1     0     0
SMALL
bcc


@<TRIPOS>ATOM
      1 N           -1.6960    19.6240    19.5550 ns         1 RJQ      -0.567900
      2 CA          -0.3410    19.3170    19.1850 c3         1 RJQ       0.039700
      3 C            0.5490    20.4890    19.5840 c          1 RJQ       0.668100
      4 O            0.1300    21.6340    19.4760 o          1 RJQ      -0.613100
      5 CB          -0.2090    19.1130    17.6580 c3         1 RJQ      -0.047100
      6 CG          -1.1420    18.0530    17.1550 ca         1 RJQ      -0.065300
      7 CD1         -0.8410    16.6940    17.1850 ca         1 RJQ       0.047400
      8 CD2         -2.3990    18.4120    16.6700 ca         1 RJQ      -0.119000
      9 CE1         -1.7360    15.7290    16.7490 ca         1 RJQ      -0.116000
     10 CE2         -3.3130    17.4640    16.2360 ca         1 RJQ      -0.129000
     11 CZ          -2.9800    16.1180    16.2750 ca         1 RJQ      -0.118000
     12 CAK         -2.5370    18.7380    20.1250 c          1 RJQ       0.673100
     13 CAM         -3.9450    19.2380    20.3270 c3         1 RJQ      -0.178100
     14 CAQ          2.4240    18.9000    20.0630 c5         1 RJQ       0.106000
     15 CAR          3.9110    19.2210    20.0340 c5         1 RJQ      -0.094400
     16 CAS          3.9870    20.5610    20.7480 c5         1 RJQ      -0.075400
     17 CAT          2.7110    21.3090    20.2930 c5         1 RJQ       0.078600
     18 CAU          2.9960    22.0690    18.9940 c          1 RJQ       0.723500
     19 CAX          2.2270    22.2190    21.3840 c2         1 RJQ      -0.138200
     20 CAY          2.5640    23.4990    21.4320 c2         1 RJQ      -0.170200
     21 CAZ          3.3760    24.1290    20.3570 c5         1 RJQ       0.148900
     22 CBA          2.9180    25.5030    19.8770 c5         1 RJQ      -0.089400
     23 CBB          3.5960    25.6170    18.5140 c5         1 RJQ      -0.085400
     24 CBC          3.5530    24.1790    17.9560 c5         1 RJQ       0.036700
     25 CBD          4.8690    23.8340    17.2790 c          1 RJQ       0.683100
     26 CBG          6.2760    24.0390    15.3350 c5         1 RJQ       0.034700
     27 CBH          7.3710    24.9020    15.9170 c          1 RJQ       0.725500
     28 CBK          9.7300    25.3890    15.9200 c5         1 RJQ       0.027700
     29 CBL          9.7470    26.7690    15.2620 c          1 RJQ       0.667100
     30 CBN         10.9340    24.5390    15.4980 c5         1 RJQ      -0.083400
     31 CBO         10.4480    23.8640    14.2270 c5         1 RJQ      -0.092400
     32 CBP          8.9710    23.5550    14.5080 c5         1 RJQ       0.162900
     33 CBQ          8.2030    23.4710    13.2140 c2         1 RJQ      -0.182200
     34 CBR          6.9710    23.8810    12.9280 c2         1 RJQ      -0.131200
     35 CBS          6.0170    24.5000    13.8950 c5         1 RJQ      -0.046500
     36 CBT          4.5410    24.1640    13.7040 c5         1 RJQ      -0.091400
     37 CBU          3.9400    24.5520    15.0490 c5         1 RJQ       0.110000
     38 NAP          1.7900    20.2170    20.0110 n          1 RJQ      -0.454800
     39 NAW          3.3340    23.3560    19.1250 n          1 RJQ      -0.450800
     40 NBF          5.0000    24.1950    15.9910 n          1 RJQ      -0.464800
     41 NBJ          8.6010    24.6120    15.4590 n          1 RJQ      -0.463800
     42 OAL         -2.2000    17.6080    20.4480 o          1 RJQ      -0.606100
     43 OAV          2.9420    21.5190    17.9040 o          1 RJQ      -0.645500
     44 OBE          5.7880    23.3280    17.9050 o          1 RJQ      -0.596100
     45 OBI          7.1540    25.8350    16.6730 o          1 RJQ      -0.630500
     46 OBM          9.1600    27.0000    14.2190 o          1 RJQ      -0.593100
     47 CL1          0.7010    16.1600    17.7820 cl         1 RJQ      -0.123400
     48 H           -2.0410    20.5380    19.3080 hn         1 RJQ       0.328500
     49 HA          -0.0570    18.4030    19.7050 h1         1 RJQ       0.100700
     50 HB1          0.8280    18.8820    17.4080 hc         1 RJQ       0.071700
     51 HB2         -0.4470    20.0580    17.1670 hc         1 RJQ       0.071700
     52 HD2         -2.6590    19.4630    16.6310 ha         1 RJQ       0.131000
     53 HE1         -1.4650    14.6820    16.7820 ha         1 RJQ       0.147000
     54 HE2         -4.2800    17.7770    15.8660 ha         1 RJQ       0.133000
     55 HZ          -3.6810    15.3670    15.9370 ha         1 RJQ       0.135000
     56 HAM         -4.2720    19.0180    21.3420 hc         1 RJQ       0.059700
     57 HZL         -4.0590    20.3050    20.1450 hc         1 RJQ       0.059700
     58 HZM         -4.6100    18.7030    19.6470 hc         1 RJQ       0.059700
     59 HAQ          2.1470    18.3810    20.9840 h1         1 RJQ       0.054700
     60 HZN          2.1310    18.2760    19.2220 h1         1 RJQ       0.054700
     61 HAR          4.5030    18.4500    20.5260 hc         1 RJQ       0.065200
     62 HZO          4.2600    19.3070    19.0050 hc         1 RJQ       0.065200
     63 HAS          3.9420    20.4180    21.8300 hc         1 RJQ       0.064700
     64 HZP          4.8900    21.1310    20.5300 hc         1 RJQ       0.064700
     65 HAX          1.6570    21.7570    22.1820 ha         1 RJQ       0.141000
     66 HAY          2.2850    24.1210    22.2740 ha         1 RJQ       0.140000
     67 HAZ          4.4170    24.2120    20.7000 h1         1 RJQ       0.069700
     68 HZQ          3.2080    26.2980    20.5620 hc         1 RJQ       0.059200
     69 HBA          1.8300    25.5170    19.7750 hc         1 RJQ       0.059200
     70 HZR          4.6280    25.9540    18.6360 hc         1 RJQ       0.067200
     71 HBB          3.1000    26.3180    17.8450 hc         1 RJQ       0.067200
     72 HBC          2.7070    24.0610    17.2760 h1         1 RJQ       0.077700
     73 HBG          6.5790    22.9850    15.3410 h1         1 RJQ       0.080700
     74 HBK          9.6960    25.5080    17.0050 h1         1 RJQ       0.082700
     75 HBN         11.1340    23.7980    16.2740 hc         1 RJQ       0.057200
     76 HZV         11.8400    25.1270    15.3570 hc         1 RJQ       0.057200
     77 HBO         11.0000    22.9590    13.9800 hc         1 RJQ       0.062200
     78 HZU         10.5280    24.5440    13.3760 hc         1 RJQ       0.062200
     79 HBP          8.9110    22.5820    15.0140 h1         1 RJQ       0.060700
     80 HBQ          8.7700    22.9930    12.4210 ha         1 RJQ       0.127000
     81 HBR          6.6160    23.7580    11.9100 ha         1 RJQ       0.128000
     82 HBS          6.1120    25.5930    13.8480 hc         1 RJQ       0.090700
     83 HZT          4.0880    24.7050    12.8740 hc         1 RJQ       0.059700
     84 HBT          4.4130    23.0930    13.5270 hc         1 RJQ       0.059700
     85 HZS          3.7190    25.6220    15.0900 h1         1 RJQ       0.053200
     86 HBU          3.0210    24.0060    15.2560 h1         1 RJQ       0.053200
     87 HZW         10.6170    28.5990    15.5390 hn         1 RJQ       0.312500
     88 HBV         10.9490    27.4620    16.7840 hn         1 RJQ       0.312500
     89 NBV         10.4890    27.6740    15.9160 nt         1 RJQ      -0.677000
@<TRIPOS>BOND
     1     1     2 1   
     2     1    12 1   
     3     1    48 1   
     4     2     3 1   
     5     2     5 1   
     6     2    49 1   
     7     3     4 2   
     8     3    38 1   
     9     5     6 1   
    10     5    50 1   
    11     5    51 1   
    12     6     7 ar  
    13     6     8 ar  
    14     7     9 ar  
    15     7    47 1   
    16     8    10 ar  
    17     8    52 1   
    18     9    11 ar  
    19     9    53 1   
    20    10    11 ar  
    21    10    54 1   
    22    11    55 1   
    23    12    13 1   
    24    12    42 2   
    25    13    56 1   
    26    13    57 1   
    27    13    58 1   
    28    14    15 1   
    29    14    38 1   
    30    14    59 1   
    31    14    60 1   
    32    15    16 1   
    33    15    61 1   
    34    15    62 1   
    35    16    17 1   
    36    16    63 1   
    37    16    64 1   
    38    17    18 1   
    39    17    19 1   
    40    17    38 1   
    41    18    39 1   
    42    18    43 2   
    43    19    20 2   
    44    19    65 1   
    45    20    21 1   
    46    20    66 1   
    47    21    22 1   
    48    21    39 1   
    49    21    67 1   
    50    22    23 1   
    51    22    68 1   
    52    22    69 1   
    53    23    24 1   
    54    23    70 1   
    55    23    71 1   
    56    24    25 1   
    57    24    39 1   
    58    24    72 1   
    59    25    40 1   
    60    25    44 2   
    61    26    27 1   
    62    26    35 1   
    63    26    40 1   
    64    26    73 1   
    65    27    41 1   
    66    27    45 2   
    67    28    29 1   
    68    28    30 1   
    69    28    41 1   
    70    28    74 1   
    71    29    46 2   
    72    29    89 1   
    73    30    31 1   
    74    30    75 1   
    75    30    76 1   
    76    31    32 1   
    77    31    77 1   
    78    31    78 1   
    79    32    33 1   
    80    32    41 1   
    81    32    79 1   
    82    33    34 2   
    83    33    80 1   
    84    34    35 1   
    85    34    81 1   
    86    35    36 1   
    87    35    82 1   
    88    36    37 1   
    89    36    83 1   
    90    36    84 1   
    91    37    40 1   
    92    37    85 1   
    93    37    86 1   
    94    87    89 1   
    95    88    89 1   
@<TRIPOS>SUBSTRUCTURE
     1 RJQ         1 TEMP              0 ****  ****    0 ROOT
