@<TRIPOS>MOLECULE
RJR
   68    72     1     0     0
SMALL
abcg2


@<TRIPOS>ATOM
      1 C1           5.3170    -1.0060     0.4260 c6         1 RJR       0.176300
      2 C2           6.4740    -1.0180     1.4210 c6         1 RJR      -0.146400
      3 C3           7.8100    -0.7940     0.7270 c6         1 RJR       0.138300
      4 C4           7.7830     0.5310    -0.0210 c6         1 RJR       0.141300
      5 C5           6.6450     0.5630    -1.0380 c6         1 RJR       0.185300
      6 C6           5.2990     0.3070    -0.3590 c6         1 RJR      -0.069700
      7 C7           4.1710     0.3520    -1.3930 c3         1 RJR       0.087600
      8 N8           2.8670     0.1540    -0.7930 na         1 RJR       0.125800
      9 N9           2.2850    -1.0300    -0.7880 nc         1 RJR      -0.197800
     10 N10          1.1650    -0.9210    -0.1570 nd         1 RJR      -0.366000
     11 C11          1.0060     0.3550     0.2620 cd         1 RJR       0.204300
     12 C12          2.1090     1.0600    -0.1480 cc         1 RJR      -0.220000
     13 C13         -0.1960     0.8250     1.0070 c3         1 RJR      -0.085700
     14 C14         -1.5040     0.3360     0.3890 c3         1 RJR      -0.077400
     15 C15         -2.7100     0.9100     1.1040 c3         1 RJR       0.163600
     16 O16         -3.8760     0.3910     0.5180 os         1 RJR      -0.457000
     17 C17         -5.0590     0.9100     1.0680 c3         1 RJR       0.171600
     18 C18         -6.2770     0.3040     0.3870 c6         1 RJR      -0.044000
     19 C19         -6.3200    -1.2200     0.5710 c6         1 RJR      -0.061400
     20 C20         -7.5810    -1.7990    -0.0750 c6         1 RJR      -0.058700
     21 C21         -8.8220    -1.1810     0.5700 c6         1 RJR      -0.068067
     22 C22         -8.7950     0.3380     0.3780 c6         1 RJR      -0.058700
     23 C23         -8.7910     0.6570    -1.1190 c6         1 RJR      -0.068067
     24 C24         -7.5500     0.0410    -1.7680 c6         1 RJR      -0.058700
     25 C25         -6.2910     0.6170    -1.1170 c6         1 RJR      -0.061400
     26 C26         -7.5740    -1.4770    -1.5710 c6         1 RJR      -0.068067
     27 C27         -7.5340     0.9110     1.0240 c6         1 RJR      -0.061400
     28 O28          5.4160    -2.0640    -0.5030 oh         1 RJR      -0.656000
     29 O30          8.8840    -0.7310     1.6450 oh         1 RJR      -0.729000
     30 O31          8.9770     0.7600    -0.7320 oh         1 RJR      -0.670000
     31 O32          6.5790     1.8200    -1.6740 oh         1 RJR      -0.730000
     32 H1           4.3800    -1.0780     0.9940 h1         1 RJR       0.051700
     33 H2           6.3110    -0.2330     2.1660 hc         1 RJR       0.057200
     34 H3           6.4820    -1.9690     1.9640 hc         1 RJR       0.057200
     35 H4           7.9760    -1.5980    -0.0030 h1         1 RJR       0.055700
     36 H5           7.6040     1.3340     0.7140 h1         1 RJR       0.051700
     37 H6           6.8270    -0.2300    -1.7790 h1         1 RJR       0.060700
     38 H7           5.1330     1.1110     0.3690 hc         1 RJR       0.067700
     39 H8           4.1550     1.3160    -1.8970 h1         1 RJR       0.088200
     40 H9           4.2990    -0.4190    -2.1500 h1         1 RJR       0.088200
     41 H10          2.3930     2.0930    -0.0420 h4         1 RJR       0.167000
     42 H11         -0.1400     0.4920     2.0480 hc         1 RJR       0.045200
     43 H12         -0.1810     1.9170     1.0380 hc         1 RJR       0.045200
     44 H13         -1.5400     0.6180    -0.6670 hc         1 RJR       0.064700
     45 H14         -1.5410    -0.7550     0.4280 hc         1 RJR       0.064700
     46 H15         -2.6690     0.6630     2.1760 h1         1 RJR       0.015200
     47 H16         -2.6970     2.0080     1.0360 h1         1 RJR       0.015200
     48 H17         -5.1050     0.7040     2.1500 h1         1 RJR       0.018200
     49 H18         -5.0850     2.0060     0.9560 h1         1 RJR       0.018200
     50 H19         -5.4330    -1.6780     0.1230 hc         1 RJR       0.043367
     51 H20         -6.2980    -1.4670     1.6390 hc         1 RJR       0.043367
     52 H21         -7.5940    -2.8840     0.0670 hc         1 RJR       0.047367
     53 H22         -9.7270    -1.5980     0.1170 hc         1 RJR       0.038367
     54 H23         -8.8600    -1.4260     1.6370 hc         1 RJR       0.038367
     55 H24         -9.6780     0.7840     0.8470 hc         1 RJR       0.047367
     56 H25         -9.6980     0.2600    -1.5890 hc         1 RJR       0.038367
     57 H26         -8.8040     1.7410    -1.2750 hc         1 RJR       0.038367
     58 H27         -7.5410     0.2730    -2.8370 hc         1 RJR       0.047367
     59 H28         -6.2490     1.7020    -1.2680 hc         1 RJR       0.043367
     60 H29         -5.4010     0.1970    -1.5960 hc         1 RJR       0.043367
     61 H30         -6.7000    -1.9320    -2.0500 hc         1 RJR       0.038367
     62 H31         -8.4610    -1.9040    -2.0530 hc         1 RJR       0.038367
     63 H32         -7.5400     0.7110     2.1020 hc         1 RJR       0.043367
     64 H33         -7.5180     2.0010     0.9090 hc         1 RJR       0.043367
     65 H34          5.3390    -2.8950    -0.0250 ho         1 RJR       0.451000
     66 H35          9.1060    -1.6260     1.9170 ho         1 RJR       0.511000
     67 H36          9.7080     0.7390    -0.1050 ho         1 RJR       0.467000
     68 H37          7.4120     1.9670    -2.1330 ho         1 RJR       0.528000
@<TRIPOS>BOND
     1     1     2 1   
     2     1     6 1   
     3     1    28 1   
     4     1    32 1   
     5     2     3 1   
     6     2    33 1   
     7     2    34 1   
     8     3     4 1   
     9     3    29 1   
    10     3    35 1   
    11     4     5 1   
    12     4    30 1   
    13     4    36 1   
    14     5     6 1   
    15     5    31 1   
    16     5    37 1   
    17     6     7 1   
    18     6    38 1   
    19     7     8 1   
    20     7    39 1   
    21     7    40 1   
    22     8     9 1   
    23     8    12 1   
    24     9    10 2   
    25    10    11 1   
    26    11    12 2   
    27    11    13 1   
    28    12    41 1   
    29    13    14 1   
    30    13    42 1   
    31    13    43 1   
    32    14    15 1   
    33    14    44 1   
    34    14    45 1   
    35    15    16 1   
    36    15    46 1   
    37    15    47 1   
    38    16    17 1   
    39    17    18 1   
    40    17    48 1   
    41    17    49 1   
    42    18    19 1   
    43    18    25 1   
    44    18    27 1   
    45    19    20 1   
    46    19    50 1   
    47    19    51 1   
    48    20    21 1   
    49    20    26 1   
    50    20    52 1   
    51    21    22 1   
    52    21    53 1   
    53    21    54 1   
    54    22    23 1   
    55    22    27 1   
    56    22    55 1   
    57    23    24 1   
    58    23    56 1   
    59    23    57 1   
    60    24    25 1   
    61    24    26 1   
    62    24    58 1   
    63    25    59 1   
    64    25    60 1   
    65    26    61 1   
    66    26    62 1   
    67    27    63 1   
    68    27    64 1   
    69    28    65 1   
    70    29    66 1   
    71    30    67 1   
    72    31    68 1   
@<TRIPOS>SUBSTRUCTURE
     1 RJR         1 TEMP              0 ****  ****    0 ROOT
