@<TRIPOS>MOLECULE
RJR
   68    72     1     0     0
SMALL
No Charge or Current Charge


@<TRIPOS>ATOM
      1 C1           5.6460    -0.7720     0.7890 c6         1 RJR       0.176300
      2 C2           6.8170    -0.0030     1.4560 c6         1 RJR      -0.146400
      3 C3           7.9860     0.2390     0.4670 c6         1 RJR       0.138300
      4 C4           7.4720     0.9980    -0.7910 c6         1 RJR       0.141300
      5 C5           6.3290     0.1980    -1.4870 c6         1 RJR       0.185300
      6 C6           5.1480    -0.0430    -0.5000 c6         1 RJR      -0.069700
      7 C7           3.9630    -0.7990    -1.1810 c3         1 RJR       0.087600
      8 N8           2.7710    -0.9740    -0.3340 na         1 RJR       0.125800
      9 N9           2.3670    -2.2120     0.0670 nc         1 RJR      -0.197800
     10 N10          1.2990    -2.0370     0.7990 nd         1 RJR      -0.366000
     11 C11          1.0130    -0.6890     0.8660 cd         1 RJR       0.204300
     12 C12          1.9420     0.0070     0.1490 cc         1 RJR      -0.220000
     13 C13         -0.1600    -0.1470     1.6380 c3         1 RJR      -0.085700
     14 C14         -1.4930    -0.2860     0.8700 c3         1 RJR      -0.077400
     15 C15         -2.6980     0.2760     1.6460 c3         1 RJR       0.163600
     16 O16         -3.8630     0.0920     0.8310 os         1 RJR      -0.457000
     17 C17         -5.0850     0.5710     1.4220 c3         1 RJR       0.171600
     18 C18         -6.2890     0.3240     0.4560 c6         1 RJR      -0.044000
     19 C19         -6.4680    -1.2030     0.1590 c6         1 RJR      -0.061400
     20 C20         -7.6870    -1.4360    -0.7810 c6         1 RJR      -0.058700
     21 C21         -8.9770    -0.9000    -0.0970 c6         1 RJR      -0.068067
     22 C22         -8.8240     0.6220     0.1850 c6         1 RJR      -0.058700
     23 C23         -8.5960     1.3770    -1.1560 c6         1 RJR      -0.068067
     24 C24         -7.3050     0.8450    -1.8410 c6         1 RJR      -0.058700
     25 C25         -6.0860     1.0780    -0.9010 c6         1 RJR      -0.061400
     26 C26         -7.4580    -0.6780    -2.1210 c6         1 RJR      -0.068067
     27 C27         -7.6030     0.8530     1.1210 c6         1 RJR      -0.061400
     28 O28          6.0670    -2.1050     0.4800 oh         1 RJR      -0.656000
     29 O30          9.0260     0.9950     1.1080 oh         1 RJR      -0.729000
     30 O31          8.5580     1.2370    -1.7040 oh         1 RJR      -0.670000
     31 O32          5.8920     0.9240    -2.6470 oh         1 RJR      -0.730000
     32 H1           4.8140    -0.8090     1.5080 h1         1 RJR       0.051700
     33 H2           6.4470     0.9600     1.8330 hc         1 RJR       0.057200
     34 H3           7.1730    -0.5590     2.3340 hc         1 RJR       0.057200
     35 H4           8.3800    -0.7380     0.1440 h1         1 RJR       0.055700
     36 H5           7.0580     1.9610    -0.4550 h1         1 RJR       0.051700
     37 H6           6.7330    -0.7800    -1.7940 h1         1 RJR       0.060700
     38 H7           4.7510     0.9370    -0.2020 hc         1 RJR       0.067700
     39 H8           3.6500    -0.2440    -2.0730 h1         1 RJR       0.088200
     40 H9           4.3090    -1.7850    -1.5140 h1         1 RJR       0.088200
     41 H10          2.0690     1.0630    -0.0440 h4         1 RJR       0.167000
     42 H11         -0.2420    -0.6680     2.6010 hc         1 RJR       0.045200
     43 H12          0.0110     0.9110     1.8720 hc         1 RJR       0.045200
     44 H13         -1.4110     0.2360    -0.0910 hc         1 RJR       0.064700
     45 H14         -1.6740    -1.3450     0.6480 hc         1 RJR       0.064700
     46 H15         -2.8040    -0.2570     2.6000 h1         1 RJR       0.015200
     47 H16         -2.5360     1.3420     1.8570 h1         1 RJR       0.015200
     48 H17         -5.2770     0.0540     2.3710 h1         1 RJR       0.018200
     49 H18         -5.0110     1.6470     1.6310 h1         1 RJR       0.018200
     50 H19         -5.5620    -1.6130    -0.3070 hc         1 RJR       0.043367
     51 H20         -6.6080    -1.7590     1.0970 hc         1 RJR       0.043367
     52 H21         -7.7970    -2.5110    -0.9810 hc         1 RJR       0.047367
     53 H22         -9.8500    -1.0810    -0.7400 hc         1 RJR       0.038367
     54 H23         -9.1640    -1.4430     0.8400 hc         1 RJR       0.038367
     55 H24         -9.7350     1.0000     0.6690 hc         1 RJR       0.047367
     56 H25         -9.4610     1.2420    -1.8200 hc         1 RJR       0.038367
     57 H26         -8.5110     2.4580    -0.9730 hc         1 RJR       0.038367
     58 H27         -7.1460     1.3780    -2.7890 hc         1 RJR       0.047367
     59 H28         -5.9530     2.1540    -0.7220 hc         1 RJR       0.043367
     60 H29         -5.1690     0.7350    -1.3990 hc         1 RJR       0.043367
     61 H30         -6.5610    -1.0630    -2.6260 hc         1 RJR       0.038367
     62 H31         -8.2990    -0.8550    -2.8050 hc         1 RJR       0.038367
     63 H32         -7.7720     0.3480     2.0830 hc         1 RJR       0.043367
     64 H33         -7.5080     1.9240     1.3500 hc         1 RJR       0.043367
     65 H34          6.1630    -2.5790     1.3360 ho         1 RJR       0.451000
     66 H35          9.3130     0.4780     1.8970 ho         1 RJR       0.511000
     67 H36          9.3260     1.4400    -1.1190 ho         1 RJR       0.467000
     68 H37          6.7240     1.3140    -3.0130 ho         1 RJR       0.528000
@<TRIPOS>BOND
     1     1     2 1   
     2     1     6 1   
     3     1    28 1   
     4     1    32 1   
     5     2     3 1   
     6     2    33 1   
     7     2    34 1   
     8     3     4 1   
     9     3    29 1   
    10     3    35 1   
    11     4     5 1   
    12     4    30 1   
    13     4    36 1   
    14     5     6 1   
    15     5    31 1   
    16     5    37 1   
    17     6     7 1   
    18     6    38 1   
    19     7     8 1   
    20     7    39 1   
    21     7    40 1   
    22     8     9 1   
    23     8    12 1   
    24     9    10 2   
    25    10    11 1   
    26    11    12 2   
    27    11    13 1   
    28    12    41 1   
    29    13    14 1   
    30    13    42 1   
    31    13    43 1   
    32    14    15 1   
    33    14    44 1   
    34    14    45 1   
    35    15    16 1   
    36    15    46 1   
    37    15    47 1   
    38    16    17 1   
    39    17    18 1   
    40    17    48 1   
    41    17    49 1   
    42    18    19 1   
    43    18    25 1   
    44    18    27 1   
    45    19    20 1   
    46    19    50 1   
    47    19    51 1   
    48    20    21 1   
    49    20    26 1   
    50    20    52 1   
    51    21    22 1   
    52    21    53 1   
    53    21    54 1   
    54    22    23 1   
    55    22    27 1   
    56    22    55 1   
    57    23    24 1   
    58    23    56 1   
    59    23    57 1   
    60    24    25 1   
    61    24    26 1   
    62    24    58 1   
    63    25    59 1   
    64    25    60 1   
    65    26    61 1   
    66    26    62 1   
    67    27    63 1   
    68    27    64 1   
    69    28    65 1   
    70    29    66 1   
    71    30    67 1   
    72    31    68 1   
@<TRIPOS>SUBSTRUCTURE
     1 RJR         1 TEMP              0 ****  ****    0 ROOT
