@<TRIPOS>MOLECULE
RJS
   35    37     1     0     0
SMALL
abcg2


@<TRIPOS>ATOM
      1 C18        -48.4330   -27.8360     4.6100 cc         1 RJS      -0.067000
      2 C16        -48.1230   -29.6180     6.1970 cd         1 RJS      -0.066000
      3 C17        -48.8860   -28.5970     5.7120 cc         1 RJS      -0.159000
      4 C13        -45.0610   -30.7970     5.1570 cc         1 RJS       0.439500
      5 C12        -45.2040   -29.7580     4.2130 cc         1 RJS      -0.414800
      6 C10        -44.3400   -29.3470     3.1280 c          1 RJS       0.690300
      7 C20        -46.4460   -29.1630     4.5240 cd         1 RJS      -0.007000
      8 C19        -47.2260   -28.1100     4.0170 cd         1 RJS      -0.105000
      9 C02        -44.6390   -33.7850     0.3000 ca         1 RJS       0.198000
     10 C03        -43.7820   -32.7180     0.1150 ca         1 RJS      -0.140000
     11 C04        -44.2520   -31.4210     0.3110 ca         1 RJS      -0.038300
     12 C05        -43.3360   -30.2450     0.1630 c3         1 RJS      -0.278100
     13 C21        -45.5820   -31.2240     0.6840 ca         1 RJS      -0.121000
     14 C22        -46.4350   -32.3040     0.8640 ca         1 RJS      -0.058000
     15 C23        -45.9630   -33.5960     0.6740 ca         1 RJS      -0.060900
     16 N09        -43.2160   -30.1500     2.9140 ns         1 RJS      -0.577300
     17 N14        -46.0850   -30.8770     5.9930 nd         1 RJS      -0.572100
     18 N15        -46.9300   -29.8800     5.6010 na         1 RJS       0.308400
     19 O07        -41.6420   -28.7330     1.5010 o          1 RJS      -0.523000
     20 O08        -41.3740   -31.1970     1.6840 o          1 RJS      -0.523000
     21 O11        -44.5580   -28.3770     2.4130 o          1 RJS      -0.589100
     22 S06        -42.2330   -30.0430     1.5740 s6         1 RJS       1.228800
     23 BR24       -47.1080   -35.0920     0.9160 br         1 RJS      -0.065100
     24 H181       -49.0480   -27.0300     4.2330 ha         1 RJS       0.132000
     25 H161       -48.3870   -30.2530     7.0290 h4         1 RJS       0.167000
     26 H171       -49.8360   -28.3830     6.1800 ha         1 RJS       0.141000
     27 H131       -44.2430   -31.4920     5.2710 h4         1 RJS       0.052800
     28 H191       -46.8550   -27.5460     3.1760 ha         1 RJS       0.162000
     29 H031       -42.7570   -32.9090    -0.1720 ha         1 RJS       0.151000
     30 H051       -42.6470   -30.3440    -0.6780 h1         1 RJS       0.119700
     31 H052       -43.8790   -29.3070     0.0790 h1         1 RJS       0.119700
     32 H211       -45.9580   -30.2220     0.8360 ha         1 RJS       0.132000
     33 H221       -47.4650   -32.1450     1.1510 ha         1 RJS       0.135000
     34 H091       -43.1380   -31.0410     3.3880 hn         1 RJS       0.343500
     35 F01        -44.1700   -35.0340     0.1120 f          1 RJS      -0.156000
@<TRIPOS>BOND
     1     1     3 1   
     2     1     8 2   
     3     1    24 1   
     4     2     3 2   
     5     2    18 1   
     6     2    25 1   
     7     3    26 1   
     8     4     5 1   
     9     4    17 2   
    10     4    27 1   
    11     5     6 1   
    12     5     7 2   
    13     6    16 1   
    14     6    21 2   
    15     7     8 1   
    16     7    18 1   
    17     8    28 1   
    18     9    10 ar  
    19     9    15 ar  
    20     9    35 1   
    21    10    11 ar  
    22    10    29 1   
    23    11    12 1   
    24    11    13 ar  
    25    12    22 1   
    26    12    30 1   
    27    12    31 1   
    28    13    14 ar  
    29    13    32 1   
    30    14    15 ar  
    31    14    33 1   
    32    15    23 1   
    33    16    22 1   
    34    16    34 1   
    35    17    18 1   
    36    19    22 2   
    37    20    22 2   
@<TRIPOS>SUBSTRUCTURE
     1 RJS         1 TEMP              0 ****  ****    0 ROOT
