@<TRIPOS>MOLECULE
RJS
   35    37     1     0     0
SMALL
No Charge or Current Charge


@<TRIPOS>ATOM
      1 C18        -48.3090   -27.4240     4.9830 cc         1 RJS      -0.067000
      2 C16        -48.1430   -29.4340     6.4690 cd         1 RJS      -0.066000
      3 C17        -48.7720   -28.2530     6.0740 cc         1 RJS      -0.159000
      4 C13        -45.3360   -30.7770     5.0330 cc         1 RJS       0.439500
      5 C12        -45.4580   -29.6270     4.2100 cc         1 RJS      -0.414800
      6 C10        -44.5810   -29.2390     3.0970 c          1 RJS       0.690300
      7 C20        -46.5650   -28.9820     4.6830 cd         1 RJS      -0.007000
      8 C19        -47.1880   -27.7720     4.2590 cd         1 RJS      -0.105000
      9 C02        -44.3320   -34.0480    -0.0140 ca         1 RJS       0.198000
     10 C03        -43.5550   -32.8790    -0.0590 ca         1 RJS      -0.140000
     11 C04        -44.1430   -31.6280     0.2090 ca         1 RJS      -0.038300
     12 C05        -43.3020   -30.3580     0.1690 c3         1 RJS      -0.278100
     13 C21        -45.5160   -31.5600     0.5140 ca         1 RJS      -0.121000
     14 C22        -46.2940   -32.7300     0.5610 ca         1 RJS      -0.058000
     15 C23        -45.7020   -33.9770     0.2980 ca         1 RJS      -0.060900
     16 N09        -43.5710   -30.1090     2.8670 ns         1 RJS      -0.577300
     17 N14        -46.2670   -30.9010     5.9730 nd         1 RJS      -0.572100
     18 N15        -47.0110   -29.7690     5.7240 na         1 RJS       0.308400
     19 O07        -41.8990   -28.6350     1.6290 o          1 RJS      -0.523000
     20 O08        -41.4630   -31.1190     1.9300 o          1 RJS      -0.523000
     21 O11        -44.7530   -28.2400     2.4220 o          1 RJS      -0.589100
     22 S06        -42.3960   -30.0140     1.6870 s6         1 RJS       1.228800
     23 Br24       -46.7740   -35.5650     0.3680 br         1 RJS      -0.065100
     24 H181       -48.8600   -26.5190     4.7420 ha         1 RJS       0.132000
     25 H161       -48.4450   -30.0910     7.2750 h4         1 RJS       0.167000
     26 H171       -49.6610   -27.9260     6.6070 ha         1 RJS       0.141000
     27 H131       -44.5780   -31.5480     4.9740 h4         1 RJS       0.052800
     28 H191       -46.8220   -27.1670     3.4370 ha         1 RJS       0.162000
     29 H031       -42.4970   -32.9510    -0.3000 ha         1 RJS       0.151000
     30 H051       -42.5490   -30.4070    -0.6230 h1         1 RJS       0.119700
     31 H052       -43.9350   -29.4800     0.0010 h1         1 RJS       0.119700
     32 H211       -45.9840   -30.5990     0.7170 ha         1 RJS       0.132000
     33 H221       -47.3540   -32.6690     0.8010 ha         1 RJS       0.135000
     34 H091       -43.4710   -30.9360     3.4250 hn         1 RJS       0.343500
     35 F01        -43.7510   -35.2420    -0.2710 f          1 RJS      -0.156000
@<TRIPOS>BOND
     1     1     3 1   
     2     1     8 2   
     3     1    24 1   
     4     2     3 2   
     5     2    18 1   
     6     2    25 1   
     7     3    26 1   
     8     4     5 1   
     9     4    17 2   
    10     4    27 1   
    11     5     6 1   
    12     5     7 2   
    13     6    16 1   
    14     6    21 2   
    15     7     8 1   
    16     7    18 1   
    17     8    28 1   
    18     9    10 ar  
    19     9    15 ar  
    20     9    35 1   
    21    10    11 ar  
    22    10    29 1   
    23    11    12 1   
    24    11    13 ar  
    25    12    22 1   
    26    12    30 1   
    27    12    31 1   
    28    13    14 ar  
    29    13    32 1   
    30    14    15 ar  
    31    14    33 1   
    32    15    23 1   
    33    16    22 1   
    34    16    34 1   
    35    17    18 1   
    36    19    22 2   
    37    20    22 2   
@<TRIPOS>SUBSTRUCTURE
     1 RJS         1 TEMP              0 ****  ****    0 ROOT
