@<TRIPOS>MOLECULE
RJW
   63    66     1     0     0
SMALL
No Charge or Current Charge


@<TRIPOS>ATOM
      1 O01          0.5230    -3.5230    -2.1870 oh         1 RJW      -0.654000
      2 C02          0.4990    -2.1060    -2.0350 c5         1 RJW       0.165300
      3 C03          1.3610    -1.4010    -3.1070 c5         1 RJW      -0.117400
      4 C04          1.3400     0.0660    -2.5920 c5         1 RJW      -0.065400
      5 C05          1.4440    -0.0980    -1.0260 c5         1 RJW       0.033400
      6 C06          2.7980     0.4150    -0.4700 ce         1 RJW      -0.041400
      7 C07          3.4290    -0.2880     0.6800 ca         1 RJW      -0.056800
      8 C08          4.5960    -1.0530     0.4880 ca         1 RJW      -0.098500
      9 C09          5.1940    -1.7170     1.5730 ca         1 RJW      -0.115000
     10 C10          4.6320    -1.6130     2.8570 ca         1 RJW      -0.110000
     11 C11          3.4740    -0.8430     3.0550 ca         1 RJW      -0.115000
     12 C12          2.8760    -0.1790     1.9700 ca         1 RJW      -0.098500
     13 C13          3.4250     1.5380    -0.8890 c2         1 RJW      -0.312000
     14 C14          1.2450    -1.6340    -0.7520 c5         1 RJW      -0.060700
     15 C15          0.2220    -1.7070     0.4360 c5         1 RJW      -0.040200
     16 C16         -0.4800    -0.3580     0.4510 c2         1 RJW      -0.093400
     17 C17         -1.7250    -0.0820     1.2710 c3         1 RJW      -0.034200
     18 C18         -2.9990    -0.6470     0.6080 c3         1 RJW      -0.070400
     19 C19         -4.2850    -0.3370     1.4050 c3         1 RJW      -0.077400
     20 C20         -5.5590    -0.9010     0.7370 c3         1 RJW      -0.075400
     21 C21         -6.8460    -0.5900     1.5320 c3         1 RJW      -0.075400
     22 C22         -8.1170    -1.1520     0.8670 c3         1 RJW      -0.088100
     23 C23          0.2140     0.4790    -0.3400 ce         1 RJW      -0.074400
     24 C24         -0.1920     1.8980    -0.5290 ca         1 RJW      -0.034800
     25 C25         -1.3120     2.2130    -1.3220 ca         1 RJW      -0.104500
     26 C26         -1.7050     3.5520    -1.4940 ca         1 RJW      -0.114000
     27 C27         -0.9810     4.5820    -0.8710 ca         1 RJW      -0.110000
     28 C28          0.1350     4.2720    -0.0740 ca         1 RJW      -0.114000
     29 C29          0.5260     2.9330     0.0980 ca         1 RJW      -0.104500
     30 H011         0.1110    -3.7210    -3.0560 ho         1 RJW       0.441000
     31 H021        -0.5360    -1.7340    -2.0670 h1         1 RJW       0.034700
     32 H031         2.3820    -1.8010    -3.1420 hc         1 RJW       0.050700
     33 H032         0.9370    -1.4890    -4.1130 hc         1 RJW       0.050700
     34 H042         2.1540     0.6420    -3.0420 hc         1 RJW       0.052700
     35 H041         0.4100     0.5610    -2.8920 hc         1 RJW       0.052700
     36 H081         5.0320    -1.1360    -0.5050 ha         1 RJW       0.117000
     37 H091         6.0930    -2.3100     1.4180 ha         1 RJW       0.111500
     38 H101         5.0950    -2.1270     3.6970 ha         1 RJW       0.111000
     39 H111         3.0400    -0.7590     4.0490 ha         1 RJW       0.111500
     40 H121         1.9820     0.4180     2.1270 ha         1 RJW       0.117000
     41 H131         3.0230     2.1730    -1.6770 ha         1 RJW       0.168000
     42 H132         4.3570     1.8710    -0.4330 ha         1 RJW       0.168000
     43 H141         2.1680    -2.2010    -0.5890 hc         1 RJW       0.077700
     44 H151        -0.4890    -2.5350     0.3250 hc         1 RJW       0.061700
     45 H152         0.7360    -1.8720     1.3890 hc         1 RJW       0.061700
     46 H172        -1.6130    -0.5170     2.2710 hc         1 RJW       0.050700
     47 H171        -1.8510     0.9980     1.4210 hc         1 RJW       0.050700
     48 H181        -3.0920    -0.2310    -0.4020 hc         1 RJW       0.039200
     49 H182        -2.8960    -1.7330     0.4980 hc         1 RJW       0.039200
     50 H192        -4.1920    -0.7540     2.4150 hc         1 RJW       0.037700
     51 H191        -4.3870     0.7500     1.5140 hc         1 RJW       0.037700
     52 H202        -5.6500    -0.4840    -0.2740 hc         1 RJW       0.037200
     53 H201        -5.4570    -1.9880     0.6280 hc         1 RJW       0.037200
     54 H212        -6.7590    -1.0070     2.5430 hc         1 RJW       0.036700
     55 H211        -6.9520     0.4970     1.6420 hc         1 RJW       0.036700
     56 H223        -9.0020    -0.9070     1.4650 hc         1 RJW       0.031367
     57 H221        -8.2510    -0.7260    -0.1350 hc         1 RJW       0.031367
     58 H222        -8.0560    -2.2430     0.7750 hc         1 RJW       0.031367
     59 H251        -1.8740     1.4190    -1.8060 ha         1 RJW       0.117000
     60 H261        -2.5700     3.7890    -2.1090 ha         1 RJW       0.111000
     61 H271        -1.2840     5.6180    -1.0040 ha         1 RJW       0.111000
     62 H281         0.6940     5.0690     0.4120 ha         1 RJW       0.111000
     63 H291         1.3830     2.6980     0.7230 ha         1 RJW       0.117000
@<TRIPOS>BOND
     1     1     2 1   
     2     1    30 1   
     3     2     3 1   
     4     2    14 1   
     5     2    31 1   
     6     3     4 1   
     7     3    32 1   
     8     3    33 1   
     9     4     5 1   
    10     4    34 1   
    11     4    35 1   
    12     5     6 1   
    13     5    14 1   
    14     5    23 1   
    15     6     7 1   
    16     6    13 2   
    17     7     8 ar  
    18     7    12 ar  
    19     8     9 ar  
    20     8    36 1   
    21     9    10 ar  
    22     9    37 1   
    23    10    11 ar  
    24    10    38 1   
    25    11    12 ar  
    26    11    39 1   
    27    12    40 1   
    28    13    41 1   
    29    13    42 1   
    30    14    15 1   
    31    14    43 1   
    32    15    16 1   
    33    15    44 1   
    34    15    45 1   
    35    16    17 1   
    36    16    23 2   
    37    17    18 1   
    38    17    46 1   
    39    17    47 1   
    40    18    19 1   
    41    18    48 1   
    42    18    49 1   
    43    19    20 1   
    44    19    50 1   
    45    19    51 1   
    46    20    21 1   
    47    20    52 1   
    48    20    53 1   
    49    21    22 1   
    50    21    54 1   
    51    21    55 1   
    52    22    56 1   
    53    22    57 1   
    54    22    58 1   
    55    23    24 1   
    56    24    25 ar  
    57    24    29 ar  
    58    25    26 ar  
    59    25    59 1   
    60    26    27 ar  
    61    26    60 1   
    62    27    28 ar  
    63    27    61 1   
    64    28    29 ar  
    65    28    62 1   
    66    29    63 1   
@<TRIPOS>SUBSTRUCTURE
     1 RJW         1 TEMP              0 ****  ****    0 ROOT
