@<TRIPOS>MOLECULE
RJW
   63    66     1     0     0
SMALL
abcg2


@<TRIPOS>ATOM
      1 O01          0.8020    -3.2880    -2.8270 oh         1 RJW      -0.654000
      2 C02          0.6950    -1.9000    -2.6170 c5         1 RJW       0.165300
      3 C03          1.5550    -1.0200    -3.5160 c5         1 RJW      -0.117400
      4 C04          1.4800     0.3250    -2.8030 c5         1 RJW      -0.065400
      5 C05          1.4970    -0.0190    -1.2910 c5         1 RJW       0.033400
      6 C06          2.8220     0.2420    -0.5820 ce         1 RJW      -0.041400
      7 C07          2.9210    -0.2230     0.8300 ca         1 RJW      -0.056800
      8 C08          3.7340    -1.3130     1.1370 ca         1 RJW      -0.098500
      9 C09          3.8440    -1.7810     2.4400 ca         1 RJW      -0.115000
     10 C10          3.1420    -1.1600     3.4630 ca         1 RJW      -0.110000
     11 C11          2.3380    -0.0650     3.1730 ca         1 RJW      -0.115000
     12 C12          2.2270     0.3980     1.8690 ca         1 RJW      -0.098500
     13 C13          3.9100     0.7520    -1.1570 c2         1 RJW      -0.312000
     14 C14          1.1830    -1.5470    -1.2180 c5         1 RJW      -0.060700
     15 C15          0.1550    -1.7200    -0.1040 c5         1 RJW      -0.040200
     16 C16         -0.4080    -0.3420     0.0930 c2         1 RJW      -0.093400
     17 C17         -1.5670    -0.1400     1.0130 c3         1 RJW      -0.034200
     18 C18         -2.8900    -0.6960     0.4840 c3         1 RJW      -0.070400
     19 C19         -4.0110    -0.6030     1.5120 c3         1 RJW      -0.077400
     20 C20         -5.3430    -1.1350     1.0020 c3         1 RJW      -0.075400
     21 C21         -6.4530    -1.0730     2.0440 c3         1 RJW      -0.075400
     22 C22         -7.7840    -1.6030     1.5270 c3         1 RJW      -0.088100
     23 C23          0.3070     0.5850    -0.5590 ce         1 RJW      -0.074400
     24 C24          0.0070     2.0240    -0.6310 ca         1 RJW      -0.034800
     25 C25         -1.2990     2.4610    -0.8760 ca         1 RJW      -0.104500
     26 C26         -1.6060     3.8120    -0.9460 ca         1 RJW      -0.114000
     27 C27         -0.6080     4.7640    -0.7870 ca         1 RJW      -0.110000
     28 C28          0.6990     4.3480    -0.5660 ca         1 RJW      -0.114000
     29 C29          1.0040     2.9960    -0.4940 ca         1 RJW      -0.104500
     30 H011         0.4340    -3.4930    -3.6910 ho         1 RJW       0.441000
     31 H021        -0.3530    -1.5730    -2.7200 h1         1 RJW       0.034700
     32 H031         2.5800    -1.4020    -3.5310 hc         1 RJW       0.050700
     33 H032         1.2000    -0.9730    -4.5480 hc         1 RJW       0.050700
     34 H042         2.2530     1.0220    -3.1180 hc         1 RJW       0.052700
     35 H041         0.5280     0.8030    -3.0470 hc         1 RJW       0.052700
     36 H081         4.2840    -1.8060     0.3440 ha         1 RJW       0.117000
     37 H091         4.4770    -2.6340     2.6520 ha         1 RJW       0.111500
     38 H101         3.2230    -1.5230     4.4790 ha         1 RJW       0.111000
     39 H111         1.7950     0.4350     3.9650 ha         1 RJW       0.111500
     40 H121         1.6020     1.2580     1.6700 ha         1 RJW       0.117000
     41 H131         3.9340     1.0810    -2.1870 ha         1 RJW       0.168000
     42 H132         4.8310     0.8650    -0.5990 ha         1 RJW       0.168000
     43 H141         2.0910    -2.1270    -1.0280 hc         1 RJW       0.077700
     44 H151        -0.6170    -2.4540    -0.3580 hc         1 RJW       0.061700
     45 H152         0.6150    -2.0720     0.8260 hc         1 RJW       0.061700
     46 H172        -1.3290    -0.6490     1.9560 hc         1 RJW       0.050700
     47 H171        -1.6870     0.9180     1.2580 hc         1 RJW       0.050700
     48 H181        -3.1790    -0.1580    -0.4240 hc         1 RJW       0.039200
     49 H182        -2.7590    -1.7410     0.1870 hc         1 RJW       0.039200
     50 H192        -3.7170    -1.1540     2.4130 hc         1 RJW       0.037700
     51 H191        -4.1320     0.4410     1.8220 hc         1 RJW       0.037700
     52 H202        -5.6450    -0.5690     0.1140 hc         1 RJW       0.037200
     53 H201        -5.2180    -2.1720     0.6710 hc         1 RJW       0.037200
     54 H212        -6.1490    -1.6400     2.9290 hc         1 RJW       0.036700
     55 H211        -6.5780    -0.0380     2.3770 hc         1 RJW       0.036700
     56 H223        -8.5600    -1.5510     2.2910 hc         1 RJW       0.031367
     57 H221        -8.1280    -1.0270     0.6660 hc         1 RJW       0.031367
     58 H222        -7.6990    -2.6450     1.2120 hc         1 RJW       0.031367
     59 H251        -2.0830     1.7310    -1.0350 ha         1 RJW       0.117000
     60 H261        -2.6260     4.1190    -1.1380 ha         1 RJW       0.111000
     61 H271        -0.8430     5.8190    -0.8440 ha         1 RJW       0.111000
     62 H281         1.4880     5.0790    -0.4490 ha         1 RJW       0.111000
     63 H291         2.0300     2.6990    -0.3240 ha         1 RJW       0.117000
@<TRIPOS>BOND
     1     1     2 1   
     2     1    30 1   
     3     2     3 1   
     4     2    14 1   
     5     2    31 1   
     6     3     4 1   
     7     3    32 1   
     8     3    33 1   
     9     4     5 1   
    10     4    34 1   
    11     4    35 1   
    12     5     6 1   
    13     5    14 1   
    14     5    23 1   
    15     6     7 1   
    16     6    13 2   
    17     7     8 ar  
    18     7    12 ar  
    19     8     9 ar  
    20     8    36 1   
    21     9    10 ar  
    22     9    37 1   
    23    10    11 ar  
    24    10    38 1   
    25    11    12 ar  
    26    11    39 1   
    27    12    40 1   
    28    13    41 1   
    29    13    42 1   
    30    14    15 1   
    31    14    43 1   
    32    15    16 1   
    33    15    44 1   
    34    15    45 1   
    35    16    17 1   
    36    16    23 2   
    37    17    18 1   
    38    17    46 1   
    39    17    47 1   
    40    18    19 1   
    41    18    48 1   
    42    18    49 1   
    43    19    20 1   
    44    19    50 1   
    45    19    51 1   
    46    20    21 1   
    47    20    52 1   
    48    20    53 1   
    49    21    22 1   
    50    21    54 1   
    51    21    55 1   
    52    22    56 1   
    53    22    57 1   
    54    22    58 1   
    55    23    24 1   
    56    24    25 ar  
    57    24    29 ar  
    58    25    26 ar  
    59    25    59 1   
    60    26    27 ar  
    61    26    60 1   
    62    27    28 ar  
    63    27    61 1   
    64    28    29 ar  
    65    28    62 1   
    66    29    63 1   
@<TRIPOS>SUBSTRUCTURE
     1 RJW         1 TEMP              0 ****  ****    0 ROOT
