@<TRIPOS>MOLECULE
RJX
   36    38     1     0     0
SMALL
No Charge or Current Charge


@<TRIPOS>ATOM
      1 N1         -19.9480     4.0020    26.4070 ns         1 RJX      -0.163000
      2 C4         -17.4710     6.5480    25.1930 ca         1 RJX      -0.096000
      3 C5         -17.1260     5.9060    23.9860 ca         1 RJX       0.346900
      4 C6         -18.5980     4.1720    24.3950 ca         1 RJX       0.272900
      5 C7         -18.9940     4.7170    25.6350 ca         1 RJX      -0.068000
      6 C8         -19.8630     3.5440    27.7120 c          1 RJX       0.602100
      7 C10        -21.9180     3.8580    29.1190 ca         1 RJX      -0.083300
      8 C13        -23.3430     5.6840    30.7270 ca         1 RJX      -0.082000
      9 C15        -21.6570     3.9420    30.5010 ca         1 RJX      -0.072000
     10 C17        -18.8100     6.6240    27.2270 ca         1 RJX      -0.082000
     11 C14        -22.3680     4.8530    31.3010 ca         1 RJX       0.157000
     12 C12        -23.6070     5.6060    29.3490 ca         1 RJX      -0.101000
     13 C11        -22.8960     4.6960    28.5470 ca         1 RJX      -0.110000
     14 C9         -21.1380     2.8810    28.2450 c3         1 RJX      -0.107100
     15 O2         -18.8540     3.6630    28.3990 o          1 RJX      -0.567100
     16 N          -17.6810     4.7410    23.5820 nb         1 RJX      -0.689000
     17 C16        -18.4310     5.9550    26.0410 ca         1 RJX      -0.016000
     18 C3         -16.8750     7.7710    25.5460 ca         1 RJX      -0.143000
     19 C2         -17.2410     8.4190    26.7360 ca         1 RJX      -0.057000
     20 C1         -18.2180     7.8590    27.5900 ca         1 RJX      -0.113600
     21 C          -18.6260     8.5720    28.8690 c          1 RJX       0.704600
     22 O1         -18.0590     9.6160    29.1630 o          1 RJX      -0.713500
     23 O          -19.5090     8.0820    29.5590 o          1 RJX      -0.713500
     24 H1         -20.8140     3.7910    25.9280 hn         1 RJX       0.144000
     25 H2         -16.3890     6.3440    23.3130 h4         1 RJX       0.003100
     26 H3         -19.0200     3.2300    24.0480 h4         1 RJX      -0.000900
     27 H4         -23.8910     6.3880    31.3490 ha         1 RJX       0.127000
     28 H5         -20.9020     3.3070    30.9570 ha         1 RJX       0.135000
     29 H6         -19.5740     6.2010    27.8730 ha         1 RJX       0.142000
     30 H7         -24.3610     6.2510    28.9020 ha         1 RJX       0.108000
     31 H8         -23.1060     4.6460    27.4810 ha         1 RJX       0.099000
     32 H9         -21.7720     2.5700    27.4060 hc         1 RJX       0.058700
     33 H10        -20.8600     2.0000    28.8350 hc         1 RJX       0.058700
     34 H11        -16.1300     8.2250    24.8950 ha         1 RJX       0.094000
     35 H12        -16.7690     9.3660    26.9870 ha         1 RJX       0.136000
     36 Cl         -22.0350     4.9510    33.0260 cl         1 RJX      -0.212000
@<TRIPOS>BOND
     1     1     5 1   
     2     1     6 1   
     3     1    24 1   
     4     2     3 ar  
     5     2    17 ar  
     6     2    18 ar  
     7     3    16 ar  
     8     3    25 1   
     9     4     5 ar  
    10     4    16 ar  
    11     4    26 1   
    12     5    17 ar  
    13     6    14 1   
    14     6    15 2   
    15     7     9 ar  
    16     7    13 ar  
    17     7    14 1   
    18     8    11 ar  
    19     8    12 ar  
    20     8    27 1   
    21     9    11 ar  
    22     9    28 1   
    23    10    17 ar  
    24    10    20 ar  
    25    10    29 1   
    26    11    36 1   
    27    12    13 ar  
    28    12    30 1   
    29    13    31 1   
    30    14    32 1   
    31    14    33 1   
    32    18    19 ar  
    33    18    34 1   
    34    19    20 ar  
    35    19    35 1   
    36    20    21 1   
    37    21    22 1   
    38    21    23 1   
@<TRIPOS>SUBSTRUCTURE
     1 RJX         1 TEMP              0 ****  ****    0 ROOT
