@<TRIPOS>MOLECULE
RJX
   36    38     1     0     0
SMALL
abcg2


@<TRIPOS>ATOM
      1 N1         -20.0770     3.9840    26.3780 ns         1 RJX      -0.163000
      2 C4         -17.5600     6.5360    25.3200 ca         1 RJX      -0.096000
      3 C5         -17.2210     5.9340    24.0860 ca         1 RJX       0.346900
      4 C6         -18.6760     4.2040    24.4290 ca         1 RJX       0.272900
      5 C7         -19.0840     4.6870    25.6470 ca         1 RJX      -0.068000
      6 C8         -19.8640     3.4100    27.5900 c          1 RJX       0.602100
      7 C10        -21.8270     3.8760    29.0310 ca         1 RJX      -0.083300
      8 C13        -23.0900     5.9250    30.4700 ca         1 RJX      -0.082000
      9 C15        -21.4170     4.1760    30.3300 ca         1 RJX      -0.072000
     10 C17        -18.9250     6.5230    27.3460 ca         1 RJX      -0.082000
     11 C14        -22.0520     5.1930    31.0270 ca         1 RJX       0.157000
     12 C12        -23.4950     5.6190    29.1750 ca         1 RJX      -0.101000
     13 C11        -22.8700     4.6040    28.4600 ca         1 RJX      -0.110000
     14 C9         -21.1050     2.8100    28.2380 c3         1 RJX      -0.107100
     15 O2         -18.7750     3.4200    28.1510 o          1 RJX      -0.567100
     16 N          -17.7570     4.8190    23.6430 nb         1 RJX      -0.689000
     17 C16        -18.5400     5.9050    26.1360 ca         1 RJX      -0.016000
     18 C3         -16.9790     7.7520    25.7510 ca         1 RJX      -0.143000
     19 C2         -17.3680     8.3210    26.9340 ca         1 RJX      -0.057000
     20 C1         -18.3580     7.7110    27.7450 ca         1 RJX      -0.113600
     21 C          -18.7910     8.3810    29.0520 c          1 RJX       0.704600
     22 O1         -18.2940     9.5090    29.2940 o          1 RJX      -0.713500
     23 O          -19.6070     7.7540    29.7730 o          1 RJX      -0.713500
     24 H1         -20.9660     3.8300    25.9260 hn         1 RJX       0.144000
     25 H2         -16.4780     6.4140    23.4560 h4         1 RJX       0.003100
     26 H3         -19.0980     3.2800    24.0500 h4         1 RJX      -0.000900
     27 H4         -23.5690     6.7130    31.0330 ha         1 RJX       0.127000
     28 H5         -20.6080     3.6240    30.7880 ha         1 RJX       0.135000
     29 H6         -19.6770     6.0690    27.9720 ha         1 RJX       0.142000
     30 H7         -24.3050     6.1790    28.7250 ha         1 RJX       0.108000
     31 H8         -23.1930     4.3750    27.4520 ha         1 RJX       0.099000
     32 H9         -21.7690     2.3990    27.4770 hc         1 RJX       0.058700
     33 H10        -20.7740     2.0030    28.8890 hc         1 RJX       0.058700
     34 H11        -16.2280     8.2230    25.1270 ha         1 RJX       0.094000
     35 H12        -16.9360     9.2520    27.2710 ha         1 RJX       0.136000
     36 CL         -21.5200     5.5660    32.6560 cl         1 RJX      -0.212000
@<TRIPOS>BOND
     1     1     5 1   
     2     1     6 1   
     3     1    24 1   
     4     2     3 ar  
     5     2    17 ar  
     6     2    18 ar  
     7     3    16 ar  
     8     3    25 1   
     9     4     5 ar  
    10     4    16 ar  
    11     4    26 1   
    12     5    17 ar  
    13     6    14 1   
    14     6    15 2   
    15     7     9 ar  
    16     7    13 ar  
    17     7    14 1   
    18     8    11 ar  
    19     8    12 ar  
    20     8    27 1   
    21     9    11 ar  
    22     9    28 1   
    23    10    17 ar  
    24    10    20 ar  
    25    10    29 1   
    26    11    36 1   
    27    12    13 ar  
    28    12    30 1   
    29    13    31 1   
    30    14    32 1   
    31    14    33 1   
    32    18    19 ar  
    33    18    34 1   
    34    19    20 ar  
    35    19    35 1   
    36    20    21 1   
    37    21    22 1   
    38    21    23 1   
@<TRIPOS>SUBSTRUCTURE
     1 RJX         1 TEMP              0 ****  ****    0 ROOT
