@<TRIPOS>MOLECULE
RJY
   20    20     1     0     0
SMALL
No Charge or Current Charge


@<TRIPOS>ATOM
      1 C10          7.5340     7.8550    24.8000 c3         1 RJY      -0.130400
      2 O01          8.9720     5.8540    30.3270 o          1 RJY      -0.494000
      3 O03          8.7570     4.4080    28.5660 os         1 RJY      -0.412100
      4 C04          9.1420     3.2680    29.3610 c3         1 RJY       0.163600
      5 C05         10.6770     3.2630    29.5200 c3         1 RJY      -0.122100
      6 C06          8.4010     6.7730    28.1750 cc         1 RJY       0.231500
      7 C07          8.3400     8.0800    28.6120 cd         1 RJY      -0.203000
      8 S08          7.9220     9.1730    27.3030 ss         1 RJY      -0.028400
      9 C09          7.8640     7.7570    26.2610 cd         1 RJY       0.436700
     10 N11          8.1290     6.5910    26.8290 nc         1 RJY      -0.599000
     11 H1           7.3460     8.8930    24.5060 hc         1 RJY       0.060700
     12 H2           8.3590     7.4750    24.1880 hc         1 RJY       0.060700
     13 H3           6.6370     7.2700    24.5640 hc         1 RJY       0.060700
     14 H4           8.6520     3.2770    30.3440 h1         1 RJY       0.059700
     15 H5           8.8430     2.3430    28.8500 h1         1 RJY       0.059700
     16 H6          10.9960     2.3580    30.0500 hc         1 RJY       0.048367
     17 H7          11.1660     3.2750    28.5390 hc         1 RJY       0.048367
     18 H8          11.0230     4.1300    30.0950 hc         1 RJY       0.048367
     19 H9           8.5140     8.4550    29.6130 h4         1 RJY       0.179000
     20 C02          8.7450     5.6650    29.1350 c          1 RJY       0.529600
@<TRIPOS>BOND
     1     1     9 1   
     2     1    11 1   
     3     1    12 1   
     4     1    13 1   
     5     2    20 2   
     6     3     4 1   
     7     3    20 1   
     8     4     5 1   
     9     4    14 1   
    10     4    15 1   
    11     5    16 1   
    12     5    17 1   
    13     5    18 1   
    14     6     7 2   
    15     6    10 1   
    16     6    20 1   
    17     7     8 1   
    18     7    19 1   
    19     8     9 1   
    20     9    10 2   
@<TRIPOS>SUBSTRUCTURE
     1 RJY         1 TEMP              0 ****  ****    0 ROOT
