@<TRIPOS>MOLECULE
RJY
   20    20     1     0     0
SMALL
abcg2


@<TRIPOS>ATOM
      1 C10          7.5490     7.7940    24.8320 c3         1 RJY      -0.130400
      2 O01          8.9100     5.8460    30.3220 o          1 RJY      -0.494000
      3 O03          8.8880     4.5350    28.5030 os         1 RJY      -0.412100
      4 C04          9.2390     3.3690    29.2670 c3         1 RJY       0.163600
      5 C05         10.7270     3.2790    29.5240 c3         1 RJY      -0.122100
      6 C06          8.3740     6.7820    28.2230 cc         1 RJY       0.231500
      7 C07          8.1940     8.0590    28.6560 cd         1 RJY      -0.203000
      8 S08          7.7580     9.0490    27.3410 ss         1 RJY      -0.028400
      9 C09          7.8460     7.6700    26.2840 cd         1 RJY       0.436700
     10 N11          8.1770     6.5780    26.8860 nc         1 RJY      -0.599000
     11 H1           8.1670     8.5610    24.3650 hc         1 RJY       0.060700
     12 H2           7.7400     6.8440    24.3380 hc         1 RJY       0.060700
     13 H3           6.5060     8.0670    24.6680 hc         1 RJY       0.060700
     14 H4           8.6740     3.3490    30.2000 h1         1 RJY       0.059700
     15 H5           8.9050     2.5340    28.6540 h1         1 RJY       0.059700
     16 H6          10.9420     2.3310    30.0180 hc         1 RJY       0.048367
     17 H7          11.2930     3.3040    28.5930 hc         1 RJY       0.048367
     18 H8          11.0810     4.0800    30.1710 hc         1 RJY       0.048367
     19 H9           8.2950     8.4470    29.6570 h4         1 RJY       0.179000
     20 C02          8.7540     5.6850    29.1350 c          1 RJY       0.529600
@<TRIPOS>BOND
     1     1     9 1   
     2     1    11 1   
     3     1    12 1   
     4     1    13 1   
     5     2    20 2   
     6     3     4 1   
     7     3    20 1   
     8     4     5 1   
     9     4    14 1   
    10     4    15 1   
    11     5    16 1   
    12     5    17 1   
    13     5    18 1   
    14     6     7 2   
    15     6    10 1   
    16     6    20 1   
    17     7     8 1   
    18     7    19 1   
    19     8     9 1   
    20     9    10 2   
@<TRIPOS>SUBSTRUCTURE
     1 RJY         1 TEMP              0 ****  ****    0 ROOT
