@<TRIPOS>MOLECULE
RJZ
   46    49     1     0     0
SMALL
bcc


@<TRIPOS>ATOM
      1 C1           4.1040     7.0820    38.8100 c3         1 RJZ      -0.115400
      2 N1           1.8400     6.1570    38.4370 nc         1 RJZ      -0.570100
      3 O1           4.7900     3.3710    36.2980 os         1 RJZ      -0.427100
      4 C2           3.0710     6.3510    38.0380 cd         1 RJZ       0.434800
      5 N2           1.9400     4.6040    35.2570 nb         1 RJZ      -0.665000
      6 C3           1.2400     5.4570    37.4240 ca         1 RJZ      -0.024900
      7 N3           3.3240     5.8190    36.8020 na         1 RJZ      -0.256000
      8 C4          -0.0430     4.9640    37.2450 ca         1 RJZ      -0.040000
      9 N4           5.1210     3.4960    34.0330 nb         1 RJZ      -0.747000
     10 C5          -0.2970     4.2880    36.0610 ca         1 RJZ      -0.253300
     11 N5          -1.8400     1.0060    32.2850 nv         1 RJZ      -0.947000
     12 C6           0.7080     4.1210    35.0930 cp         1 RJZ       0.476800
     13 N6          -0.0150     2.0870    31.4150 nb         1 RJZ      -0.809000
     14 C7           2.1590     5.2310    36.3880 ca         1 RJZ       0.416800
     15 N7           1.7960     3.1020    30.4420 nv         1 RJZ      -0.947000
     16 C8           4.5760     5.8020    36.0800 c3         1 RJZ       0.021300
     17 C9           5.4520     4.6170    36.4520 c3         1 RJZ       0.132400
     18 C10          4.6490     2.8480    35.0790 ca         1 RJZ       0.666600
     19 C11          4.0030     1.6120    34.9770 ca         1 RJZ      -0.248300
     20 C12          3.8640     1.0700    33.7190 ca         1 RJZ      -0.060000
     21 C13          4.3530     1.7450    32.6010 ca         1 RJZ      -0.244300
     22 C14          4.9650     2.9540    32.8450 ca         1 RJZ       0.514500
     23 C15          0.4470     3.4080    33.8210 cp         1 RJZ      -0.031500
     24 C16         -0.6000     2.4990    33.7050 ca         1 RJZ      -0.342800
     25 C17         -0.7930     1.8650    32.4720 ca         1 RJZ       0.693200
     26 C18          0.9920     2.9500    31.5360 ca         1 RJZ       0.693200
     27 C19          1.2610     3.6420    32.7210 ca         1 RJZ      -0.342800
     28 BR1          5.6390     3.9680    31.3890 br         1 RJZ      -0.177200
     29 H1           3.6650     7.4610    39.7300 hc         1 RJZ       0.060033
     30 H2           4.9440     6.4370    39.0710 hc         1 RJZ       0.060033
     31 H3           4.5010     7.9260    38.2440 hc         1 RJZ       0.060033
     32 H4          -0.8190     5.1010    37.9870 ha         1 RJZ       0.151000
     33 H5          -1.2900     3.9040    35.8780 ha         1 RJZ       0.145000
     34 H6          -1.7580     0.3720    31.5070 hn         1 RJZ       0.414300
     35 H7          -2.2510     0.5940    33.1060 hn         1 RJZ       0.414300
     36 H8           1.4040     2.8320    29.5550 hn         1 RJZ       0.414300
     37 H9           2.3830     3.9180    30.4060 hn         1 RJZ       0.414300
     38 H10          5.1280     6.7180    36.2900 h1         1 RJZ       0.081700
     39 H11          4.3510     5.8010    35.0150 h1         1 RJZ       0.081700
     40 H12          6.3720     4.6560    35.8650 h1         1 RJZ       0.068700
     41 H13          5.7220     4.6610    37.5060 h1         1 RJZ       0.068700
     42 H14          3.6250     1.1120    35.8580 ha         1 RJZ       0.159000
     43 H15          3.3690     0.1160    33.5930 ha         1 RJZ       0.143000
     44 H16          4.2410     1.3450    31.6050 ha         1 RJZ       0.165000
     45 H17         -1.2480     2.2560    34.5360 ha         1 RJZ       0.148500
     46 H18          2.0870     4.3370    32.7740 ha         1 RJZ       0.148500
@<TRIPOS>BOND
     1     1     4 1   
     2     1    29 1   
     3     1    30 1   
     4     1    31 1   
     5     2     4 2   
     6     2     6 1   
     7     3    17 1   
     8     3    18 1   
     9     4     7 1   
    10     5    12 ar  
    11     5    14 ar  
    12     6     8 ar  
    13     6    14 ar  
    14     7    14 1   
    15     7    16 1   
    16     8    10 ar  
    17     8    32 1   
    18     9    18 ar  
    19     9    22 ar  
    20    10    12 ar  
    21    10    33 1   
    22    11    25 1   
    23    11    34 1   
    24    11    35 1   
    25    12    23 1   
    26    13    25 ar  
    27    13    26 ar  
    28    15    26 1   
    29    15    36 1   
    30    15    37 1   
    31    16    17 1   
    32    16    38 1   
    33    16    39 1   
    34    17    40 1   
    35    17    41 1   
    36    18    19 ar  
    37    19    20 ar  
    38    19    42 1   
    39    20    21 ar  
    40    20    43 1   
    41    21    22 ar  
    42    21    44 1   
    43    22    28 1   
    44    23    24 ar  
    45    23    27 ar  
    46    24    25 ar  
    47    24    45 1   
    48    26    27 ar  
    49    27    46 1   
@<TRIPOS>SUBSTRUCTURE
     1 RJZ         1 TEMP              0 ****  ****    0 ROOT
