@<TRIPOS>MOLECULE
RJZ
   46    49     1     0     0
SMALL
No Charge or Current Charge


@<TRIPOS>ATOM
      1 C1           4.1400     6.9450    38.9730 c3         1 RJZ      -0.115400
      2 N1           1.9320     5.8930    38.5300 nc         1 RJZ      -0.570100
      3 O1           5.1210     3.6010    36.4230 os         1 RJZ      -0.450300
      4 C2           3.1480     6.2510    38.0840 cd         1 RJZ       0.434800
      5 N2           1.9660     4.7230    35.1360 nb         1 RJZ      -0.665000
      6 C3           1.4030     5.2700    37.4100 ca         1 RJZ       0.040400
      7 N3           3.4030     5.8970    36.7510 na         1 RJZ      -0.285300
      8 C4           0.1400     4.6750    37.2910 ca         1 RJZ      -0.022000
      9 N4           5.1480     3.3300    34.0790 nb         1 RJZ      -0.747000
     10 C5          -0.1740     4.0780    36.0550 ca         1 RJZ      -0.170000
     11 N5          -1.5260     0.9050    31.9450 nv         1 RJZ      -1.057400
     12 C6           0.7690     4.1050    34.9880 cp         1 RJZ       0.411500
     13 N6           0.0660     2.1510    31.1310 nb         1 RJZ      -0.809000
     14 C7           2.2640     5.2660    36.3330 ca         1 RJZ       0.351500
     15 N7           1.6390     3.3060    30.1580 nv         1 RJZ      -1.057400
     16 C8           4.6560     5.9700    35.9680 c3         1 RJZ       0.050600
     17 C9           5.7210     4.9160    36.3720 c3         1 RJZ       0.155600
     18 C10          4.6790     2.9560    35.2900 ca         1 RJZ       0.601300
     19 C11          3.7730     1.8960    35.4590 ca         1 RJZ      -0.165000
     20 C12          3.2950     1.2060    34.3340 ca         1 RJZ      -0.042000
     21 C13          3.7630     1.6090    33.0760 ca         1 RJZ      -0.161000
     22 C14          4.6800     2.6690    33.0020 ca         1 RJZ       0.449200
     23 C15          0.5120     3.4400    33.6560 cp         1 RJZ      -0.031500
     24 C16         -0.4750     2.4370    33.4700 ca         1 RJZ      -0.259500
     25 C17         -0.6370     1.8580    32.2080 ca         1 RJZ       0.627900
     26 C18          0.9900     3.0780    31.2970 ca         1 RJZ       0.627900
     27 C19          1.2620     3.7490    32.4900 ca         1 RJZ      -0.259500
     28 Br1          5.3410     3.2560    31.3100 br         1 RJZ      -0.177200
     29 H1           3.6540     7.3610    39.8630 hc         1 RJZ       0.060033
     30 H2           4.9150     6.2470    39.3090 hc         1 RJZ       0.060033
     31 H3           4.6300     7.7710    38.4460 hc         1 RJZ       0.060033
     32 H4          -0.5600     4.6670    38.1230 ha         1 RJZ       0.133000
     33 H5          -1.1400     3.6020    35.9250 ha         1 RJZ       0.127000
     34 H6          -1.3660     0.4220    31.0700 hn         1 RJZ       0.469500
     35 H7          -1.8510     0.3400    32.7210 hn         1 RJZ       0.469500
     36 H8           1.1810     2.9280    29.3390 hn         1 RJZ       0.469500
     37 H9           2.0920     4.2050    30.0500 hn         1 RJZ       0.469500
     38 H10          5.0880     6.9720    36.0880 h1         1 RJZ       0.081700
     39 H11          4.4200     5.8520    34.9030 h1         1 RJZ       0.081700
     40 H12          6.5630     4.9470    35.6670 h1         1 RJZ       0.068700
     41 H13          6.1140     5.1800    37.3610 h1         1 RJZ       0.068700
     42 H14          3.4390     1.6290    36.4560 ha         1 RJZ       0.141000
     43 H15          2.5830     0.3890    34.4350 ha         1 RJZ       0.125000
     44 H16          3.4230     1.1170    32.1690 ha         1 RJZ       0.147000
     45 H17         -1.1000     2.1000    34.2900 ha         1 RJZ       0.130500
     46 H18          2.0470     4.4980    32.5150 ha         1 RJZ       0.130500
@<TRIPOS>BOND
     1     1     4 1   
     2     1    29 1   
     3     1    30 1   
     4     1    31 1   
     5     2     4 2   
     6     2     6 1   
     7     3    17 1   
     8     3    18 1   
     9     4     7 1   
    10     5    12 ar  
    11     5    14 ar  
    12     6     8 ar  
    13     6    14 ar  
    14     7    14 1   
    15     7    16 1   
    16     8    10 ar  
    17     8    32 1   
    18     9    18 ar  
    19     9    22 ar  
    20    10    12 ar  
    21    10    33 1   
    22    11    25 1   
    23    11    34 1   
    24    11    35 1   
    25    12    23 1   
    26    13    25 ar  
    27    13    26 ar  
    28    15    26 1   
    29    15    36 1   
    30    15    37 1   
    31    16    17 1   
    32    16    38 1   
    33    16    39 1   
    34    17    40 1   
    35    17    41 1   
    36    18    19 ar  
    37    19    20 ar  
    38    19    42 1   
    39    20    21 ar  
    40    20    43 1   
    41    21    22 ar  
    42    21    44 1   
    43    22    28 1   
    44    23    24 ar  
    45    23    27 ar  
    46    24    25 ar  
    47    24    45 1   
    48    26    27 ar  
    49    27    46 1   
@<TRIPOS>SUBSTRUCTURE
     1 RJZ         1 TEMP              0 ****  ****    0 ROOT
