@<TRIPOS>MOLECULE
RK0
   37    38     1     0     0
SMALL
No Charge or Current Charge


@<TRIPOS>ATOM
      1 C18        -45.3750   -26.8030     0.6600 ca         1 RK0      -0.052300
      2 C16        -43.4630   -27.9340     1.6780 ca         1 RK0      -0.126000
      3 C17        -44.0820   -26.7600     1.2180 ca         1 RK0      -0.092000
      4 C15        -44.1260   -29.1670     1.5940 ca         1 RK0       0.270000
      5 C20        -46.0400   -28.0500     0.5560 ca         1 RK0       0.008000
      6 C19        -46.0220   -25.5060     0.1750 c3         1 RK0      -0.051800
      7 C01        -50.8110   -28.6410     5.7650 c3         1 RK0      -0.169100
      8 C02        -49.7110   -29.3970     5.0330 c          1 RK0       0.601100
      9 C05        -47.2530   -29.5870     4.9760 cc         1 RK0       0.562300
     10 C07        -45.0360   -29.7010     4.9530 cd         1 RK0       0.470300
     11 C08        -43.6820   -29.2810     5.4460 c3         1 RK0      -0.149400
     12 C09        -45.3170   -30.6050     3.9660 cc         1 RK0      -0.573500
     13 C21        -47.3590   -28.1540    -0.0130 cg         1 RK0       0.321000
     14 C23        -45.4060   -29.2210     1.0180 ca         1 RK0      -0.098000
     15 N06        -46.1520   -29.1150     5.5300 nd         1 RK0      -0.739000
     16 N14        -43.4980   -30.3110     2.0710 nu         1 RK0      -0.884100
     17 N22        -48.4300   -28.2490    -0.4680 n1         1 RK0      -0.443000
     18 O03        -49.9580   -30.2090     4.1570 o          1 RK0      -0.559100
     19 S10        -47.0250   -30.7910     3.7230 ss         1 RK0       0.210600
     20 S11        -44.1550   -31.5150     3.0250 sy         1 RK0       1.233600
     21 H161       -42.4680   -27.8790     2.1090 ha         1 RK0       0.118000
     22 H171       -43.5530   -25.8130     1.3000 ha         1 RK0       0.121000
     23 H191       -46.9600   -25.3090     0.7070 hc         1 RK0       0.052367
     24 H192       -45.3690   -24.6400     0.3340 hc         1 RK0       0.052367
     25 H193       -46.2450   -25.5530    -0.8980 hc         1 RK0       0.052367
     26 H012       -51.8130   -28.9140     5.4150 hc         1 RK0       0.074367
     27 H013       -50.7010   -28.8050     6.8430 hc         1 RK0       0.074367
     28 H011       -50.6290   -27.5650     5.6710 hc         1 RK0       0.074367
     29 H081       -43.7590   -28.4730     6.1830 hc         1 RK0       0.064700
     30 H083       -43.1650   -30.1180     5.9280 hc         1 RK0       0.064700
     31 H082       -43.0570   -28.9170     4.6250 hc         1 RK0       0.064700
     32 H231       -45.9100   -30.1790     0.9210 ha         1 RK0       0.158000
     33 H041       -48.3710   -28.3980     6.1710 hn         1 RK0       0.344500
     34 H141       -42.5700   -30.1880     2.4490 hn         1 RK0       0.494000
     35 N04        -48.4410   -29.0880     5.4380 ns         1 RK0      -0.473400
     36 O12        -44.8430   -32.4140     2.0980 o          1 RK0      -0.538000
     37 O13        -43.0340   -31.9240     3.8680 o          1 RK0      -0.538000
@<TRIPOS>BOND
     1     1     3 ar  
     2     1     5 ar  
     3     1     6 1   
     4     2     3 ar  
     5     2     4 ar  
     6     2    21 1   
     7     3    22 1   
     8     4    14 ar  
     9     4    16 1   
    10     5    13 1   
    11     5    14 ar  
    12     6    23 1   
    13     6    24 1   
    14     6    25 1   
    15     7     8 1   
    16     7    26 1   
    17     7    27 1   
    18     7    28 1   
    19     8    18 2   
    20     8    35 1   
    21     9    15 2   
    22     9    19 1   
    23     9    35 1   
    24    10    11 1   
    25    10    12 2   
    26    10    15 1   
    27    11    29 1   
    28    11    30 1   
    29    11    31 1   
    30    12    19 1   
    31    12    20 1   
    32    13    17 3   
    33    14    32 1   
    34    16    20 1   
    35    16    34 1   
    36    20    36 2   
    37    20    37 2   
    38    33    35 1   
@<TRIPOS>SUBSTRUCTURE
     1 RK0         1 TEMP              0 ****  ****    0 ROOT
