@<TRIPOS>MOLECULE
RK0
   37    38     1     0     0
SMALL
abcg2


@<TRIPOS>ATOM
      1 C18        -45.2790   -26.8150     0.5370 ca         1 RK0      -0.052300
      2 C16        -43.4630   -27.9390     1.6900 ca         1 RK0      -0.126000
      3 C17        -44.0370   -26.7910     1.1670 ca         1 RK0      -0.092000
      4 C15        -44.1080   -29.1700     1.5750 ca         1 RK0       0.270000
      5 C20        -45.9110   -28.0660     0.4280 ca         1 RK0       0.008000
      6 C19        -45.9160   -25.5640     0.0070 c3         1 RK0      -0.051800
      7 C01        -50.8600   -28.8060     5.8860 c3         1 RK0      -0.169100
      8 C02        -49.6790   -29.3990     5.1770 c          1 RK0       0.601100
      9 C05        -47.2500   -29.4410     5.1500 cc         1 RK0       0.562300
     10 C07        -45.0440   -29.6020     5.0330 cd         1 RK0       0.470300
     11 C08        -43.6660   -29.2020     5.4350 c3         1 RK0      -0.149400
     12 C09        -45.3960   -30.5120     4.0670 cc         1 RK0      -0.573500
     13 C21        -47.1860   -28.1580    -0.2070 cg         1 RK0       0.321000
     14 C23        -45.3330   -29.2370     0.9230 ca         1 RK0      -0.098000
     15 N06        -46.1140   -29.0060     5.6410 nd         1 RK0      -0.739000
     16 N14        -43.4990   -30.3230     2.1270 nu         1 RK0      -0.884100
     17 N22        -48.2190   -28.2240    -0.7170 n1         1 RK0      -0.443000
     18 O03        -49.7630   -30.2190     4.2730 o          1 RK0      -0.559100
     19 S10        -47.1280   -30.6200     3.8900 ss         1 RK0       0.210600
     20 S11        -44.3630   -31.4270     3.0150 sy         1 RK0       1.233600
     21 H161       -42.5100   -27.8840     2.2020 ha         1 RK0       0.118000
     22 H171       -43.5160   -25.8470     1.2670 ha         1 RK0       0.121000
     23 H191       -46.8610   -25.3610     0.5180 hc         1 RK0       0.052367
     24 H192       -45.2590   -24.7080     0.1500 hc         1 RK0       0.052367
     25 H193       -46.1390   -25.6550    -1.0590 hc         1 RK0       0.052367
     26 H012       -51.7480   -28.9290     5.2710 hc         1 RK0       0.074367
     27 H013       -51.0080   -29.3370     6.8300 hc         1 RK0       0.074367
     28 H011       -50.7020   -27.7520     6.1140 hc         1 RK0       0.074367
     29 H081       -43.6230   -29.0610     6.5150 hc         1 RK0       0.064700
     30 H083       -42.9270   -29.9450     5.1440 hc         1 RK0       0.064700
     31 H082       -43.4050   -28.2510     4.9630 hc         1 RK0       0.064700
     32 H231       -45.8430   -30.1800     0.8010 ha         1 RK0       0.158000
     33 H041       -48.3960   -28.2980     6.3720 hn         1 RK0       0.344500
     34 H141       -42.5850   -30.1660     2.5350 hn         1 RK0       0.494000
     35 N04        -48.4500   -28.9810     5.6270 ns         1 RK0      -0.473400
     36 O12        -45.2410   -32.1430     2.1220 o          1 RK0      -0.538000
     37 O13        -43.3640   -32.1560     3.7560 o          1 RK0      -0.538000
@<TRIPOS>BOND
     1     1     3 ar  
     2     1     5 ar  
     3     1     6 1   
     4     2     3 ar  
     5     2     4 ar  
     6     2    21 1   
     7     3    22 1   
     8     4    14 ar  
     9     4    16 1   
    10     5    13 1   
    11     5    14 ar  
    12     6    23 1   
    13     6    24 1   
    14     6    25 1   
    15     7     8 1   
    16     7    26 1   
    17     7    27 1   
    18     7    28 1   
    19     8    18 2   
    20     8    35 1   
    21     9    15 2   
    22     9    19 1   
    23     9    35 1   
    24    10    11 1   
    25    10    12 2   
    26    10    15 1   
    27    11    29 1   
    28    11    30 1   
    29    11    31 1   
    30    12    19 1   
    31    12    20 1   
    32    13    17 3   
    33    14    32 1   
    34    16    20 1   
    35    16    34 1   
    36    20    36 2   
    37    20    37 2   
    38    33    35 1   
@<TRIPOS>SUBSTRUCTURE
     1 RK0         1 TEMP              0 ****  ****    0 ROOT
