@<TRIPOS>MOLECULE
RK1
   46    47     1     0     0
SMALL
bcc


@<TRIPOS>ATOM
      1 C10         -1.9210    -0.2980    -2.0550 c3         1 RK1      -0.074400
      2 C15          1.6350    -1.4530     0.1650 c3         1 RK1       0.153300
      3 C17          3.3230     0.1770     1.0650 ca         1 RK1      -0.112500
      4 C20          4.5830     0.3490    -1.4000 ca         1 RK1      -0.132000
      5 C21          3.4880    -0.4880    -1.2340 ca         1 RK1      -0.112500
      6 C01         -1.4150     3.5800    -0.5090 c3         1 RK1      -0.095100
      7 C02         -2.0520     2.2430    -0.8640 c3         1 RK1       0.171800
      8 C04         -1.8470     1.4030     1.3450 c3         1 RK1       0.143800
      9 C05         -1.6470     0.2910     2.3670 c3         1 RK1       0.091800
     10 C07         -3.3180    -1.1230     1.4650 c2         1 RK1       0.448200
     11 C08         -3.2570    -0.6900     0.0280 c3         1 RK1      -0.183700
     12 C09         -1.8980    -0.2160    -0.5060 c3         1 RK1       0.131200
     13 C11         -1.9130    -1.6960    -2.6630 c3         1 RK1      -0.090100
     14 C12         -0.7880    -1.1940    -0.0780 c          1 RK1       0.667100
     15 C16          2.8500    -0.5840    -0.0010 ca         1 RK1      -0.111300
     16 C18          4.4170     1.0160     0.9020 ca         1 RK1      -0.132000
     17 C19          5.0500     1.1040    -0.3310 ca         1 RK1      -0.121000
     18 N03         -1.5410     1.1370    -0.0590 n3         1 RK1      -0.744600
     19 N06         -2.6500    -0.7450     2.4660 n2         1 RK1      -0.586900
     20 N14          0.4460    -0.6820    -0.1360 ns         1 RK1      -0.563900
     21 O13         -1.0210    -2.3620     0.2010 o          1 RK1      -0.611100
     22 H1          -2.8130     0.2260    -2.4070 hc         1 RK1       0.045200
     23 H2          -1.0600     0.2480    -2.4480 hc         1 RK1       0.045200
     24 H3           1.6920    -2.3160    -0.5030 h1         1 RK1       0.054700
     25 H4           1.5850    -1.8430     1.1860 h1         1 RK1       0.054700
     26 H6           5.0740     0.4110    -2.3630 ha         1 RK1       0.132000
     27 H7           3.1290    -1.0770    -2.0700 ha         1 RK1       0.133500
     28 H8          -1.7060     4.3250    -1.2500 hc         1 RK1       0.039033
     29 H9          -1.7150     3.9610     0.4660 hc         1 RK1       0.039033
     30 H10         -0.3260     3.5000    -0.5250 hc         1 RK1       0.039033
     31 H11         -3.1480     2.3320    -0.7750 h1         1 RK1       0.034200
     32 H12         -1.8360     2.0610    -1.9130 h1         1 RK1       0.034200
     33 H13         -2.8840     1.7610     1.4580 h1         1 RK1       0.038700
     34 H14         -1.2120     2.2270     1.6750 h1         1 RK1       0.038700
     35 H15         -0.6570    -0.1670     2.2840 h1         1 RK1       0.064700
     36 H16         -1.6290     0.7930     3.3380 h1         1 RK1       0.064700
     37 H17         -4.0670    -1.8910     1.6610 h4         1 RK1       0.015800
     38 H18         -3.6220    -1.5290    -0.5640 hc         1 RK1       0.062700
     39 H19         -3.9910     0.1100    -0.1350 hc         1 RK1       0.062700
     40 H20         -0.9550    -2.2000    -2.5350 hc         1 RK1       0.041367
     41 H21         -2.6880    -2.3420    -2.2530 hc         1 RK1       0.041367
     42 H22         -2.0930    -1.6150    -3.7350 hc         1 RK1       0.041367
     43 H23          4.7770     1.6010     1.7390 ha         1 RK1       0.132000
     44 H24          5.9050     1.7550    -0.4570 ha         1 RK1       0.131000
     45 H26          0.5130     0.3180    -0.2650 hn         1 RK1       0.341500
     46 H5           2.8370     0.1090     2.0310 ha         1 RK1       0.133500
@<TRIPOS>BOND
     1     1    12 1   
     2     1    13 1   
     3     1    22 1   
     4     1    23 1   
     5     2    15 1   
     6     2    20 1   
     7     2    24 1   
     8     2    25 1   
     9     3    15 ar  
    10     3    16 ar  
    11     3    46 1   
    12     4     5 ar  
    13     4    17 ar  
    14     4    26 1   
    15     5    15 ar  
    16     5    27 1   
    17     6     7 1   
    18     6    28 1   
    19     6    29 1   
    20     6    30 1   
    21     7    18 1   
    22     7    31 1   
    23     7    32 1   
    24     8     9 1   
    25     8    18 1   
    26     8    33 1   
    27     8    34 1   
    28     9    19 1   
    29     9    35 1   
    30     9    36 1   
    31    10    11 1   
    32    10    19 2   
    33    10    37 1   
    34    11    12 1   
    35    11    38 1   
    36    11    39 1   
    37    12    14 1   
    38    12    18 1   
    39    13    40 1   
    40    13    41 1   
    41    13    42 1   
    42    14    20 1   
    43    14    21 2   
    44    16    17 ar  
    45    16    43 1   
    46    17    44 1   
    47    20    45 1   
@<TRIPOS>SUBSTRUCTURE
     1 RK1         1 TEMP              0 ****  ****    0 ROOT
