@<TRIPOS>MOLECULE
RK1
   46    47     1     0     0
SMALL
No Charge or Current Charge


@<TRIPOS>ATOM
      1 C10         -2.3110    -0.4330    -2.1310 c3         1 RK1      -0.074400
      2 C15          1.7000    -1.5640    -0.1860 c3         1 RK1       0.153300
      3 C17          3.1560    -0.1090     1.3010 ca         1 RK1      -0.094500
      4 C20          4.7190     0.6920    -0.8920 ca         1 RK1      -0.114000
      5 C21          3.6490    -0.2010    -1.0800 ca         1 RK1      -0.094500
      6 C01         -1.5450     3.6560    -0.8530 c3         1 RK1      -0.095100
      7 C02         -2.1370     2.2470    -1.0690 c3         1 RK1       0.171800
      8 C04         -1.4520     1.5000     1.1800 c3         1 RK1       0.143800
      9 C05         -1.0020     0.4330     2.2110 c3         1 RK1       0.091800
     10 C07         -2.9310    -1.0440     1.6980 c2         1 RK1       0.448200
     11 C08         -3.2050    -0.6020     0.2700 c3         1 RK1      -0.183700
     12 C09         -1.9460    -0.2810    -0.6020 c3         1 RK1       0.131200
     13 C11         -2.5620    -1.8590    -2.6900 c3         1 RK1      -0.090100
     14 C12         -0.8000    -1.3530    -0.3570 c          1 RK1       0.600100
     15 C16          2.8640    -0.6080     0.0170 ca         1 RK1      -0.111300
     16 C18          4.2260     0.7840     1.4880 ca         1 RK1      -0.114000
     17 C19          5.0080     1.1840     0.3910 ca         1 RK1      -0.103000
     18 N03         -1.4840     1.1470    -0.2820 n3         1 RK1      -0.744600
     19 N06         -2.0080    -0.6150     2.4980 n2         1 RK1      -0.586900
     20 N14          0.4680    -0.8300    -0.4340 ns         1 RK1      -0.496900
     21 O13         -0.9910    -2.5310    -0.0660 o          1 RK1      -0.611100
     22 H1          -3.2110     0.1550    -2.3480 hc         1 RK1       0.045200
     23 H2          -1.4990    -0.0020    -2.7290 hc         1 RK1       0.045200
     24 H3           1.8990    -2.2260    -1.0400 h1         1 RK1       0.054700
     25 H4           1.5750    -2.1890     0.7090 h1         1 RK1       0.054700
     26 H6           5.3230     1.0020    -1.7420 ha         1 RK1       0.114000
     27 H7           3.4290    -0.5750    -2.0780 ha         1 RK1       0.115500
     28 H8          -1.9720     4.3560    -1.5800 hc         1 RK1       0.039033
     29 H9          -1.7730     4.0390     0.1480 hc         1 RK1       0.039033
     30 H10         -0.4570     3.6430    -0.9890 hc         1 RK1       0.039033
     31 H11         -3.2120     2.2840    -0.8490 h1         1 RK1       0.034200
     32 H12         -2.0340     2.0630    -2.1450 h1         1 RK1       0.034200
     33 H13         -2.4410     1.8610     1.4950 h1         1 RK1       0.038700
     34 H14         -0.7650     2.3450     1.3140 h1         1 RK1       0.038700
     35 H15         -0.0380     0.0000     1.9200 h1         1 RK1       0.064700
     36 H16         -0.8080     0.9800     3.1430 h1         1 RK1       0.064700
     37 H17         -3.6000    -1.8190     2.0650 h4         1 RK1       0.015800
     38 H18         -3.7770    -1.4080    -0.1980 hc         1 RK1       0.062700
     39 H19         -3.8850     0.2570     0.2740 hc         1 RK1       0.062700
     40 H20         -1.6460    -2.4600    -2.6820 hc         1 RK1       0.041367
     41 H21         -3.3360    -2.3940    -2.1290 hc         1 RK1       0.041367
     42 H22         -2.8960    -1.7940    -3.7320 hc         1 RK1       0.041367
     43 H23          4.4480     1.1650     2.4820 ha         1 RK1       0.114000
     44 H24          5.8360     1.8750     0.5360 ha         1 RK1       0.113000
     45 H26          0.5070     0.1690    -0.6050 hn         1 RK1       0.341500
     46 H5           2.5540    -0.4120     2.1550 ha         1 RK1       0.115500
@<TRIPOS>BOND
     1     1    12 1   
     2     1    13 1   
     3     1    22 1   
     4     1    23 1   
     5     2    15 1   
     6     2    20 1   
     7     2    24 1   
     8     2    25 1   
     9     3    15 ar  
    10     3    16 ar  
    11     3    46 1   
    12     4     5 ar  
    13     4    17 ar  
    14     4    26 1   
    15     5    15 ar  
    16     5    27 1   
    17     6     7 1   
    18     6    28 1   
    19     6    29 1   
    20     6    30 1   
    21     7    18 1   
    22     7    31 1   
    23     7    32 1   
    24     8     9 1   
    25     8    18 1   
    26     8    33 1   
    27     8    34 1   
    28     9    19 1   
    29     9    35 1   
    30     9    36 1   
    31    10    11 1   
    32    10    19 2   
    33    10    37 1   
    34    11    12 1   
    35    11    38 1   
    36    11    39 1   
    37    12    14 1   
    38    12    18 1   
    39    13    40 1   
    40    13    41 1   
    41    13    42 1   
    42    14    20 1   
    43    14    21 2   
    44    16    17 ar  
    45    16    43 1   
    46    17    44 1   
    47    20    45 1   
@<TRIPOS>SUBSTRUCTURE
     1 RK1         1 TEMP              0 ****  ****    0 ROOT
