@<TRIPOS>MOLECULE
RK4
   32    33     1     0     0
SMALL
bcc


@<TRIPOS>ATOM
      1 C13         68.6550    77.7710    26.4040 c6         1 RK4      -0.061400
      2 C15         66.4010    78.3240    27.4080 c6         1 RK4       0.179300
      3 O01         62.4380    78.8720    30.4880 o          1 RK4      -0.826300
      4 O03         62.6210    80.1190    32.3280 o          1 RK4      -0.826300
      5 C04         64.0720    80.5800    30.5210 ca         1 RK4      -0.138600
      6 C05         64.7400    81.5810    31.2240 ca         1 RK4      -0.099000
      7 C06         65.7600    82.3040    30.6230 ca         1 RK4      -0.169000
      8 C07         66.1240    82.0370    29.3090 ca         1 RK4      -0.146000
      9 C08         65.4770    81.0390    28.5850 ca         1 RK4      -0.165300
     10 C09         65.8930    80.7120    27.1680 c3         1 RK4       0.237100
     11 N10         66.8600    79.6420    27.0190 n3         1 RK4      -0.750600
     12 C11         68.1720    79.9480    27.5640 c6         1 RK4       0.179300
     13 C12         69.0850    78.7160    27.5160 c6         1 RK4      -0.075400
     14 C14         67.2360    77.2610    26.6810 c6         1 RK4      -0.075400
     15 C16         64.4540    80.3260    29.2070 ca         1 RK4      -0.095000
     16 H1          68.6860    78.2960    25.4470 hc         1 RK4       0.030200
     17 H2          69.3500    76.9330    26.3200 hc         1 RK4       0.030200
     18 H3          66.4480    78.1690    28.4980 h1         1 RK4       0.037200
     19 H4          65.3490    78.2220    27.1350 h1         1 RK4       0.037200
     20 H6          64.4540    81.7950    32.2450 ha         1 RK4       0.143000
     21 H7          66.2690    83.0830    31.1760 ha         1 RK4       0.102000
     22 H8          66.9130    82.6170    28.8420 ha         1 RK4       0.098000
     23 H9          66.3140    81.6080    26.7000 h1         1 RK4       0.042200
     24 H10         65.0070    80.4400    26.5870 h1         1 RK4       0.042200
     25 H12         68.6020    80.7610    26.9690 h1         1 RK4       0.037200
     26 H13         68.1220    80.3140    28.6020 h1         1 RK4       0.037200
     27 H14         69.0470    78.1830    28.4700 hc         1 RK4       0.031950
     28 H15         70.1210    79.0360    27.3880 hc         1 RK4       0.031950
     29 H16         66.7520    76.9850    25.7420 hc         1 RK4       0.031950
     30 H17         67.2720    76.3550    27.2910 hc         1 RK4       0.031950
     31 H18         63.9290    79.5580    28.6510 ha         1 RK4       0.142000
     32 C02         62.9410    79.7850    31.1710 c          1 RK4       0.924200
@<TRIPOS>BOND
     1     1    13 1   
     2     1    14 1   
     3     1    16 1   
     4     1    17 1   
     5     2    11 1   
     6     2    14 1   
     7     2    18 1   
     8     2    19 1   
     9     3    32 1   
    10     4    32 1   
    11     5     6 ar  
    12     5    15 ar  
    13     5    32 1   
    14     6     7 ar  
    15     6    20 1   
    16     7     8 ar  
    17     7    21 1   
    18     8     9 ar  
    19     8    22 1   
    20     9    10 1   
    21     9    15 ar  
    22    10    11 1   
    23    10    23 1   
    24    10    24 1   
    25    11    12 1   
    26    12    13 1   
    27    12    25 1   
    28    12    26 1   
    29    13    27 1   
    30    13    28 1   
    31    14    29 1   
    32    14    30 1   
    33    15    31 1   
@<TRIPOS>SUBSTRUCTURE
     1 RK4         1 TEMP              0 ****  ****    0 ROOT
