@<TRIPOS>MOLECULE
RK4
   32    33     1     0     0
SMALL
No Charge or Current Charge


@<TRIPOS>ATOM
      1 C13         68.6740    77.6980    26.4090 c6         1 RK4      -0.061400
      2 C15         66.3380    78.3500    27.3340 c6         1 RK4       0.179300
      3 O01         62.2570    78.9920    30.4500 o          1 RK4      -0.721000
      4 O03         62.5660    80.0280    32.3060 o          1 RK4      -0.721000
      5 C04         64.0170    80.5720    30.5190 ca         1 RK4      -0.138600
      6 C05         64.7350    81.5310    31.2710 ca         1 RK4      -0.081000
      7 C06         65.8010    82.2400    30.6940 ca         1 RK4      -0.151000
      8 C07         66.1690    82.0030    29.3610 ca         1 RK4      -0.128000
      9 C08         65.4770    81.0460    28.5950 ca         1 RK4      -0.165300
     10 C09         65.8690    80.7930    27.1370 c3         1 RK4       0.237100
     11 N10         66.8460    79.6920    26.9400 n3         1 RK4      -0.750600
     12 C11         68.1910    79.9710    27.5290 c6         1 RK4       0.179300
     13 C12         69.1900    78.7860    27.3790 c6         1 RK4      -0.075400
     14 C14         67.2700    77.2020    26.8450 c6         1 RK4      -0.075400
     15 C16         64.4010    80.3430    29.1750 ca         1 RK4      -0.077000
     16 H1          68.6210    78.1110    25.3920 hc         1 RK4       0.030200
     17 H2          69.3780    76.8560    26.3680 hc         1 RK4       0.030200
     18 H3          66.2550    78.2920    28.4290 h1         1 RK4       0.037200
     19 H4          65.3290    78.1810    26.9300 h1         1 RK4       0.037200
     20 H6          64.4670    81.7310    32.3060 ha         1 RK4       0.125000
     21 H7          66.3420    82.9770    31.2820 ha         1 RK4       0.084000
     22 H8          66.9950    82.5600    28.9240 ha         1 RK4       0.080000
     23 H9          66.2780    81.7240    26.7200 h1         1 RK4       0.042200
     24 H10         64.9560    80.5780    26.5650 h1         1 RK4       0.042200
     25 H12         68.6240    80.8590    27.0440 h1         1 RK4       0.037200
     26 H13         68.1050    80.2080    28.5990 h1         1 RK4       0.037200
     27 H14         69.3590    78.3340    28.3660 hc         1 RK4       0.031950
     28 H15         70.1660    79.1610    27.0420 hc         1 RK4       0.031950
     29 H16         66.7980    76.6770    26.0040 hc         1 RK4       0.031950
     30 H17         67.3700    76.4590    27.6480 hc         1 RK4       0.031950
     31 H18         63.8620    79.6130    28.5750 ha         1 RK4       0.124000
     32 C02         62.8580    79.8050    31.1390 c          1 RK4       0.713600
@<TRIPOS>BOND
     1     1    13 1   
     2     1    14 1   
     3     1    16 1   
     4     1    17 1   
     5     2    11 1   
     6     2    14 1   
     7     2    18 1   
     8     2    19 1   
     9     3    32 1   
    10     4    32 1   
    11     5     6 ar  
    12     5    15 ar  
    13     5    32 1   
    14     6     7 ar  
    15     6    20 1   
    16     7     8 ar  
    17     7    21 1   
    18     8     9 ar  
    19     8    22 1   
    20     9    10 1   
    21     9    15 ar  
    22    10    11 1   
    23    10    23 1   
    24    10    24 1   
    25    11    12 1   
    26    12    13 1   
    27    12    25 1   
    28    12    26 1   
    29    13    27 1   
    30    13    28 1   
    31    14    29 1   
    32    14    30 1   
    33    15    31 1   
@<TRIPOS>SUBSTRUCTURE
     1 RK4         1 TEMP              0 ****  ****    0 ROOT
