@<TRIPOS>MOLECULE
RK5
   34    36     1     0     0
SMALL
abcg2


@<TRIPOS>ATOM
      1 C1          32.9360    19.5700    24.0270 c3         1 RK5      -0.029900
      2 C2          32.9280    20.9690    23.5450 cc         1 RK5       0.032900
      3 C3          32.6540    21.5230    22.3400 cd         1 RK5      -0.127400
      4 C4          32.2600    20.8500    21.0730 c3         1 RK5      -0.018900
      5 C5          32.8280    22.9420    22.5200 ca         1 RK5      -0.115800
      6 C6          32.7010    24.0550    21.6950 ca         1 RK5      -0.042000
      7 C7          32.9440    25.3200    22.2240 cp         1 RK5      -0.067000
      8 C8          33.3160    25.4510    23.5740 ca         1 RK5      -0.076000
      9 C9          33.4520    24.3540    24.4100 ca         1 RK5      -0.111000
     10 C10         33.1990    23.1150    23.8530 ca         1 RK5       0.071100
     11 O1          33.2610    21.9200    24.4720 os         1 RK5      -0.175200
     12 C11         32.8090    26.5220    21.3740 cp         1 RK5       0.082000
     13 C12         33.1960    26.4890    20.0380 ca         1 RK5      -0.276500
     14 C13         33.0380    27.6480    19.2710 ca         1 RK5       0.634900
     15 N1          33.3490    27.6530    17.9410 nv         1 RK5      -1.055900
     16 N2          32.5470    28.7820    19.7680 nb         1 RK5      -0.812000
     17 C14         32.1840    28.8120    21.0490 ca         1 RK5       0.634900
     18 N3          31.7310    30.0110    21.5230 nv         1 RK5      -1.055900
     19 C15         32.2900    27.7020    21.8950 ca         1 RK5      -0.276500
     20 H1          32.2330    19.4280    24.8500 hc         1 RK5       0.056367
     21 H2          32.6540    18.8900    23.2260 hc         1 RK5       0.056367
     22 H3          33.9250    19.2760    24.3850 hc         1 RK5       0.056367
     23 H4          32.9610    21.0830    20.2700 hc         1 RK5       0.042033
     24 H5          32.2280    19.7670    21.1790 hc         1 RK5       0.042033
     25 H6          31.2730    21.1790    20.7420 hc         1 RK5       0.042033
     26 H7          32.3960    23.9390    20.6620 ha         1 RK5       0.123000
     27 H8          33.5230    26.4350    23.9720 ha         1 RK5       0.121000
     28 H9          33.7480    24.4700    25.4450 ha         1 RK5       0.131000
     29 H10         33.6300    25.6010    19.5980 ha         1 RK5       0.122000
     30 H11         33.4980    28.5560    17.5210 hn         1 RK5       0.468500
     31 H12         33.9720    26.9360    17.6070 hn         1 RK5       0.468500
     32 H13         31.3990    30.6630    20.8310 hn         1 RK5       0.468500
     33 H14         31.1850    29.9970    22.3680 hn         1 RK5       0.468500
     34 H15         31.9510    27.7660    22.9200 ha         1 RK5       0.122000
@<TRIPOS>BOND
     1     1     2 1   
     2     1    20 1   
     3     1    21 1   
     4     1    22 1   
     5     2     3 2   
     6     2    11 1   
     7     3     4 1   
     8     3     5 1   
     9     4    23 1   
    10     4    24 1   
    11     4    25 1   
    12     5     6 ar  
    13     5    10 ar  
    14     6     7 ar  
    15     6    26 1   
    16     7     8 ar  
    17     7    12 1   
    18     8     9 ar  
    19     8    27 1   
    20     9    10 ar  
    21     9    28 1   
    22    10    11 1   
    23    12    13 ar  
    24    12    19 ar  
    25    13    14 ar  
    26    13    29 1   
    27    14    15 1   
    28    14    16 ar  
    29    15    30 1   
    30    15    31 1   
    31    16    17 ar  
    32    17    18 1   
    33    17    19 ar  
    34    18    32 1   
    35    18    33 1   
    36    19    34 1   
@<TRIPOS>SUBSTRUCTURE
     1 RK5         1 TEMP              0 ****  ****    0 ROOT
