@<TRIPOS>MOLECULE
RK5
   34    36     1     0     0
SMALL
No Charge or Current Charge


@<TRIPOS>ATOM
      1 C1          32.9080    19.4510    23.9960 c3         1 RK5      -0.029900
      2 C2          32.9200    20.9040    23.6110 cc         1 RK5       0.032900
      3 C3          32.7090    21.5140    22.3860 cd         1 RK5      -0.127400
      4 C4          32.3990    20.8420    21.0730 c3         1 RK5      -0.018900
      5 C5          32.8370    22.9220    22.6040 ca         1 RK5      -0.115800
      6 C6          32.7220    24.0170    21.7390 ca         1 RK5      -0.042000
      7 C7          32.9030    25.3270    22.2690 cp         1 RK5      -0.067000
      8 C8          33.1940    25.4550    23.6640 ca         1 RK5      -0.076000
      9 C9          33.3020    24.3250    24.5040 ca         1 RK5      -0.111000
     10 C10         33.1140    23.0610    23.9350 ca         1 RK5       0.071100
     11 O1          33.1790    21.8560    24.5980 os         1 RK5      -0.175200
     12 C11         32.7920    26.5340    21.3900 cp         1 RK5       0.082000
     13 C12         33.1380    26.5050    20.0200 ca         1 RK5      -0.276500
     14 C13         33.0040    27.6680    19.2630 ca         1 RK5       0.634900
     15 N1          33.3160    27.7440    17.9720 nv         1 RK5      -1.055900
     16 N2          32.5780    28.8330    19.7110 nb         1 RK5      -0.812000
     17 C14         32.2580    28.8600    20.9910 ca         1 RK5       0.634900
     18 N3          31.8270    30.0670    21.3450 nv         1 RK5      -1.055900
     19 C15         32.3320    27.7800    21.8700 ca         1 RK5      -0.276500
     20 H1          33.0170    19.3260    25.0790 hc         1 RK5       0.056367
     21 H2          31.9660    18.9780    23.6950 hc         1 RK5       0.056367
     22 H3          33.7290    18.9140    23.5080 hc         1 RK5       0.056367
     23 H4          32.9820    21.2850    20.2570 hc         1 RK5       0.042033
     24 H5          32.6330    19.7710    21.1030 hc         1 RK5       0.042033
     25 H6          31.3370    20.9460    20.8230 hc         1 RK5       0.042033
     26 H7          32.4860    23.8620    20.6900 ha         1 RK5       0.123000
     27 H8          33.3520    26.4400    24.0950 ha         1 RK5       0.121000
     28 H9          33.5260    24.4310    25.5620 ha         1 RK5       0.131000
     29 H10         33.5140    25.5990    19.5570 ha         1 RK5       0.122000
     30 H11         33.4010    28.6900    17.6230 hn         1 RK5       0.468500
     31 H12         33.9790    27.0670    17.6120 hn         1 RK5       0.468500
     32 H13         31.5980    30.6690    20.5640 hn         1 RK5       0.468500
     33 H14         31.2210    30.1270    22.1550 hn         1 RK5       0.468500
     34 H15         32.0280    27.9040    22.9040 ha         1 RK5       0.122000
@<TRIPOS>BOND
     1     1     2 1   
     2     1    20 1   
     3     1    21 1   
     4     1    22 1   
     5     2     3 2   
     6     2    11 1   
     7     3     4 1   
     8     3     5 1   
     9     4    23 1   
    10     4    24 1   
    11     4    25 1   
    12     5     6 ar  
    13     5    10 ar  
    14     6     7 ar  
    15     6    26 1   
    16     7     8 ar  
    17     7    12 1   
    18     8     9 ar  
    19     8    27 1   
    20     9    10 ar  
    21     9    28 1   
    22    10    11 1   
    23    12    13 ar  
    24    12    19 ar  
    25    13    14 ar  
    26    13    29 1   
    27    14    15 1   
    28    14    16 ar  
    29    15    30 1   
    30    15    31 1   
    31    16    17 ar  
    32    17    18 1   
    33    17    19 ar  
    34    18    32 1   
    35    18    33 1   
    36    19    34 1   
@<TRIPOS>SUBSTRUCTURE
     1 RK5         1 TEMP              0 ****  ****    0 ROOT
