@<TRIPOS>MOLECULE
RK6
   41    43     1     0     0
SMALL
No Charge or Current Charge


@<TRIPOS>ATOM
      1 N1         -19.9610     4.9240    27.2440 ns         1 RK6      -0.174000
      2 C4         -18.7960     7.3900    26.0530 ca         1 RK6      -0.092000
      3 C5         -18.0400     6.2280    26.3130 ca         1 RK6       0.011000
      4 C6         -18.5990     5.0420    26.8530 ca         1 RK6      -0.074000
      5 C7         -20.6960     5.6900    28.1360 c          1 RK6       0.596100
      6 C8         -22.1610     5.2640    28.2950 c3         1 RK6      -0.107100
      7 C10        -22.6290     5.0610    30.7890 ca         1 RK6      -0.087000
      8 C13        -22.3890     2.2660    30.6810 ca         1 RK6       0.126000
      9 C15        -17.7640     3.9160    27.0030 ca         1 RK6       0.312900
     10 C17        -16.6650     6.2260    25.9930 ca         1 RK6      -0.101000
     11 Cl         -22.2360     0.5150    30.6130 cl         1 RK6      -0.213000
     12 C12        -22.6720     2.8970    31.9030 ca         1 RK6      -0.095000
     13 C11        -22.7920     4.2960    31.9570 ca         1 RK6      -0.099000
     14 C14        -22.2250     3.0290    29.5130 ca         1 RK6      -0.093000
     15 C9         -22.3450     4.4330    29.5600 ca         1 RK6      -0.065300
     16 O1         -20.2130     6.6170    28.7750 o          1 RK6      -0.562100
     17 N2         -16.4480     3.9100    26.6940 nb         1 RK6      -0.651000
     18 C16        -15.9150     5.0520    26.2060 ca         1 RK6       0.360900
     19 C3         -18.1820     8.5350    25.5170 ca         1 RK6      -0.052000
     20 C18        -16.0500     7.3740    25.4590 ca         1 RK6      -0.060000
     21 C2         -16.8020     8.5490    25.2180 ca         1 RK6      -0.136600
     22 C1         -16.1810     9.8070    24.6430 c          1 RK6       0.604700
     23 O          -16.8370    10.8170    24.4240 o          1 RK6      -0.603100
     24 N          -14.8300     9.7700    24.3720 ns         1 RK6      -0.504900
     25 C          -14.0670    10.8900    23.8150 c3         1 RK6       0.096300
     26 H1         -20.4600     4.1460    26.8300 hn         1 RK6       0.156000
     27 H2         -19.8630     7.4210    26.2500 ha         1 RK6       0.127000
     28 H3         -22.7830     6.1650    28.3530 hc         1 RK6       0.066700
     29 H4         -22.4690     4.6690    27.4270 hc         1 RK6       0.066700
     30 H5         -22.7200     6.1440    30.8400 ha         1 RK6       0.118000
     31 H6         -18.1630     2.9840    27.4030 h4         1 RK6       0.023100
     32 H7         -22.7980     2.3020    32.8050 ha         1 RK6       0.131000
     33 H8         -23.0110     4.7880    32.9030 ha         1 RK6       0.121000
     34 H9         -22.0060     2.5270    28.5740 ha         1 RK6       0.126000
     35 H10        -14.8520     5.0200    25.9660 h4         1 RK6       0.022100
     36 H11        -18.7920     9.4170    25.3320 ha         1 RK6       0.140000
     37 H12        -14.9870     7.3350    25.2300 ha         1 RK6       0.115000
     38 H13        -14.3410     8.9080    24.5760 hn         1 RK6       0.317500
     39 H14        -13.0160    10.5970    23.6980 h1         1 RK6       0.043367
     40 H15        -14.4770    11.1660    22.8350 h1         1 RK6       0.043367
     41 H16        -14.1280    11.7520    24.4930 h1         1 RK6       0.043367
@<TRIPOS>BOND
     1     1     4 1   
     2     1     5 1   
     3     1    26 1   
     4     2     3 ar  
     5     2    19 ar  
     6     2    27 1   
     7     3     4 ar  
     8     3    10 ar  
     9     4     9 ar  
    10     5     6 1   
    11     5    16 2   
    12     6    15 1   
    13     6    28 1   
    14     6    29 1   
    15     7    13 ar  
    16     7    15 ar  
    17     7    30 1   
    18     8    11 1   
    19     8    12 ar  
    20     8    14 ar  
    21     9    17 ar  
    22     9    31 1   
    23    10    18 ar  
    24    10    20 ar  
    25    12    13 ar  
    26    12    32 1   
    27    13    33 1   
    28    14    15 ar  
    29    14    34 1   
    30    17    18 ar  
    31    18    35 1   
    32    19    21 ar  
    33    19    36 1   
    34    20    21 ar  
    35    20    37 1   
    36    21    22 1   
    37    22    23 2   
    38    22    24 1   
    39    24    25 1   
    40    24    38 1   
    41    25    39 1   
    42    25    40 1   
    43    25    41 1   
@<TRIPOS>SUBSTRUCTURE
     1 RK6         1 TEMP              0 ****  ****    0 ROOT
