@<TRIPOS>MOLECULE
RK6
   41    43     1     0     0
SMALL
abcg2


@<TRIPOS>ATOM
      1 N1         -19.9820     4.5210    26.6100 ns         1 RK6      -0.174000
      2 C4         -18.8070     7.1910    26.1320 ca         1 RK6      -0.092000
      3 C5         -18.1190     5.9780    25.8940 ca         1 RK6       0.011000
      4 C6         -18.6650     4.6870    26.1120 ca         1 RK6      -0.074000
      5 C7         -20.3760     4.8890    27.8590 c          1 RK6       0.596100
      6 C8         -21.8550     4.6520    28.1410 c3         1 RK6      -0.107100
      7 C10        -22.5770     5.4080    30.4380 ca         1 RK6      -0.087000
      8 C13        -22.1770     2.8800    31.4630 ca         1 RK6       0.126000
      9 C15        -17.9210     3.5790    25.7880 ca         1 RK6       0.312900
     10 C17        -16.7990     6.0350    25.3700 ca         1 RK6      -0.101000
     11 CL         -21.9240     1.2670    32.1060 cl         1 RK6      -0.213000
     12 C12        -22.6150     3.8860    32.3130 ca         1 RK6      -0.095000
     13 C11        -22.8140     5.1570    31.7850 ca         1 RK6      -0.099000
     14 C14        -21.9380     3.1130    30.1170 ca         1 RK6      -0.093000
     15 C9         -22.1370     4.3900    29.5940 ca         1 RK6      -0.065300
     16 O1         -19.6190     5.4070    28.6680 o          1 RK6      -0.562100
     17 N2         -16.6700     3.6340    25.2690 nb         1 RK6      -0.651000
     18 C16        -16.1360     4.8180    25.0800 ca         1 RK6       0.360900
     19 C3         -18.1990     8.3890    25.8730 ca         1 RK6      -0.052000
     20 C18        -16.1900     7.2860    25.1290 ca         1 RK6      -0.060000
     21 C2         -16.8710     8.4530    25.3810 ca         1 RK6      -0.136600
     22 C1         -16.2950     9.8090    25.1030 c          1 RK6       0.604700
     23 O          -17.0280    10.7670    24.8400 o          1 RK6      -0.603100
     24 N          -14.9570     9.9220    25.1530 ns         1 RK6      -0.504900
     25 C          -14.2780    11.1750    24.8760 c3         1 RK6       0.096300
     26 H1         -20.6210     3.9720    26.0540 hn         1 RK6       0.156000
     27 H2         -19.8180     7.1680    26.5110 ha         1 RK6       0.127000
     28 H3         -22.3760     5.5560    27.8130 hc         1 RK6       0.066700
     29 H4         -22.2210     3.8300    27.5230 hc         1 RK6       0.066700
     30 H5         -22.7370     6.4010    30.0370 ha         1 RK6       0.118000
     31 H6         -18.3380     2.5910    25.9450 h4         1 RK6       0.023100
     32 H7         -22.7990     3.6800    33.3580 ha         1 RK6       0.131000
     33 H8         -23.1580     5.9540    32.4320 ha         1 RK6       0.121000
     34 H9         -21.5980     2.3070    29.4790 ha         1 RK6       0.126000
     35 H10        -15.1280     4.8540    24.6740 h4         1 RK6       0.022100
     36 H11        -18.7290     9.3170    26.0420 ha         1 RK6       0.140000
     37 H12        -15.1900     7.2950    24.7130 ha         1 RK6       0.115000
     38 H13        -14.4060     9.1380    25.4590 hn         1 RK6       0.317500
     39 H14        -13.2060    11.0000    24.9150 h1         1 RK6       0.043367
     40 H15        -14.5450    11.5440    23.8850 h1         1 RK6       0.043367
     41 H16        -14.5430    11.9390    25.6100 h1         1 RK6       0.043367
@<TRIPOS>BOND
     1     1     4 1   
     2     1     5 1   
     3     1    26 1   
     4     2     3 ar  
     5     2    19 ar  
     6     2    27 1   
     7     3     4 ar  
     8     3    10 ar  
     9     4     9 ar  
    10     5     6 1   
    11     5    16 2   
    12     6    15 1   
    13     6    28 1   
    14     6    29 1   
    15     7    13 ar  
    16     7    15 ar  
    17     7    30 1   
    18     8    11 1   
    19     8    12 ar  
    20     8    14 ar  
    21     9    17 ar  
    22     9    31 1   
    23    10    18 ar  
    24    10    20 ar  
    25    12    13 ar  
    26    12    32 1   
    27    13    33 1   
    28    14    15 ar  
    29    14    34 1   
    30    17    18 ar  
    31    18    35 1   
    32    19    21 ar  
    33    19    36 1   
    34    20    21 ar  
    35    20    37 1   
    36    21    22 1   
    37    22    23 2   
    38    22    24 1   
    39    24    25 1   
    40    24    38 1   
    41    25    39 1   
    42    25    40 1   
    43    25    41 1   
@<TRIPOS>SUBSTRUCTURE
     1 RK6         1 TEMP              0 ****  ****    0 ROOT
