@<TRIPOS>MOLECULE
RK7
   27    27     1     0     0
SMALL
abcg2


@<TRIPOS>ATOM
      1 C4          -1.6070    -0.3910     0.4220 c3         1 RK7       0.113000
      2 C5          -0.0960    -0.2930     0.4530 ca         1 RK7       0.320300
      3 C6           0.5600     0.8570     0.8670 ca         1 RK7      -0.147000
      4 C7           1.9440     0.8790     0.8470 ca         1 RK7      -0.040000
      5 C8           2.6100    -0.2590     0.4150 ca         1 RK7      -0.079900
      6 N            0.5530    -1.3730     0.0480 nb         1 RK7      -0.682000
      7 C           -6.2790     0.9420     1.3510 c3         1 RK7      -0.098100
      8 C1          -5.7390     0.3710     0.0650 c3         1 RK7       0.169600
      9 C3          -2.1440     0.4080    -0.7700 c3         1 RK7       0.111300
     10 C9           1.8770    -1.3700     0.0260 ca         1 RK7       0.387900
     11 F           -1.4820     0.0330    -1.9190 f          1 RK7      -0.231000
     12 O2          -2.0300    -1.7190     0.3610 oh         1 RK7      -0.646000
     13 BR           4.4870    -0.3100     0.3640 br         1 RK7      -0.066100
     14 H1          -2.0080     0.0710     1.3290 h1         1 RK7       0.089700
     15 H2           0.0090     1.7240     1.2090 ha         1 RK7       0.131000
     16 H3           2.4810     1.7600     1.1690 ha         1 RK7       0.138000
     17 H4          -5.8490     0.4480     2.2220 hc         1 RK7       0.047700
     18 H5          -6.0900     2.0130     1.4260 hc         1 RK7       0.047700
     19 H6          -7.3580     0.7920     1.3810 hc         1 RK7       0.047700
     20 H7          -5.9550    -0.6960    -0.0140 h1         1 RK7       0.052200
     21 H8          -6.1740     0.8710    -0.8020 h1         1 RK7       0.052200
     22 H9          -1.9870     1.4790    -0.6070 h1         1 RK7       0.077700
     23 H10          2.3650    -2.2780    -0.3100 h4         1 RK7       0.041100
     24 H11         -1.3010    -2.2310    -0.0250 ho         1 RK7       0.487000
     25 C2          -3.6230     0.1370    -0.9750 c          1 RK7       0.583100
     26 O1          -4.0850    -0.3920    -1.9490 o          1 RK7      -0.450000
     27 O           -4.3110     0.5690     0.0630 os         1 RK7      -0.455100
@<TRIPOS>BOND
     1     1     2 1   
     2     1     9 1   
     3     1    12 1   
     4     1    14 1   
     5     2     3 ar  
     6     2     6 ar  
     7     3     4 ar  
     8     3    15 1   
     9     4     5 ar  
    10     4    16 1   
    11     5    10 ar  
    12     5    13 1   
    13     6    10 ar  
    14     7     8 1   
    15     7    17 1   
    16     7    18 1   
    17     7    19 1   
    18     8    20 1   
    19     8    21 1   
    20     8    27 1   
    21     9    11 1   
    22     9    22 1   
    23     9    25 1   
    24    10    23 1   
    25    12    24 1   
    26    25    26 2   
    27    25    27 1   
@<TRIPOS>SUBSTRUCTURE
     1 RK7         1 TEMP              0 ****  ****    0 ROOT
