@<TRIPOS>MOLECULE
RK7
   27    27     1     0     0
SMALL
No Charge or Current Charge


@<TRIPOS>ATOM
      1 C4          -1.5950    -0.7070     0.1480 c3         1 RK7       0.113000
      2 C5          -0.0860    -0.4570     0.3240 ca         1 RK7       0.320300
      3 C6           0.4000     0.7780     0.7960 ca         1 RK7      -0.147000
      4 C7           1.7850     0.9620     0.9460 ca         1 RK7      -0.040000
      5 C8           2.6350    -0.1050     0.6180 ca         1 RK7      -0.079900
      6 N            0.7380    -1.4950     0.0120 nb         1 RK7      -0.682000
      7 C           -6.1840     1.1760     1.5060 c3         1 RK7      -0.098100
      8 C1          -5.7810     0.5470     0.1630 c3         1 RK7       0.169600
      9 C3          -2.2080     0.1920    -0.9610 c3         1 RK7       0.111300
     10 C9           2.0750    -1.3120     0.1580 ca         1 RK7       0.387900
     11 F           -1.6110    -0.0580    -2.1620 f          1 RK7      -0.231000
     12 O2          -1.8370    -2.1030    -0.1360 oh         1 RK7      -0.646000
     13 Br           4.5320     0.0790     0.7990 br         1 RK7      -0.066100
     14 H1          -2.0760    -0.4370     1.0990 h1         1 RK7       0.089700
     15 H2          -0.2870     1.5820     1.0460 ha         1 RK7       0.131000
     16 H3           2.1870     1.9070     1.3070 ha         1 RK7       0.138000
     17 H4          -5.7590     0.6070     2.3410 hc         1 RK7       0.047700
     18 H5          -5.8280     2.2120     1.5690 hc         1 RK7       0.047700
     19 H6          -7.2750     1.1800     1.6110 hc         1 RK7       0.047700
     20 H7          -6.1580    -0.4830     0.1130 h1         1 RK7       0.052200
     21 H8          -6.2270     1.1230    -0.6600 h1         1 RK7       0.052200
     22 H9          -2.0120     1.2400    -0.7070 h1         1 RK7       0.077700
     23 H10          2.7120    -2.1570    -0.1010 h4         1 RK7       0.041100
     24 H11         -0.9240    -2.4710    -0.2500 ho         1 RK7       0.487000
     25 C2          -3.7440     0.0490    -1.0280 c          1 RK7       0.583100
     26 O1          -4.3610    -0.3790    -1.9980 o          1 RK7      -0.450000
     27 O           -4.3450     0.5740     0.0910 os         1 RK7      -0.455100
@<TRIPOS>BOND
     1     1     2 1   
     2     1     9 1   
     3     1    12 1   
     4     1    14 1   
     5     2     3 ar  
     6     2     6 ar  
     7     3     4 ar  
     8     3    15 1   
     9     4     5 ar  
    10     4    16 1   
    11     5    10 ar  
    12     5    13 1   
    13     6    10 ar  
    14     7     8 1   
    15     7    17 1   
    16     7    18 1   
    17     7    19 1   
    18     8    20 1   
    19     8    21 1   
    20     8    27 1   
    21     9    11 1   
    22     9    22 1   
    23     9    25 1   
    24    10    23 1   
    25    12    24 1   
    26    25    26 2   
    27    25    27 1   
@<TRIPOS>SUBSTRUCTURE
     1 RK7         1 TEMP              0 ****  ****    0 ROOT
