@<TRIPOS>MOLECULE
RK9
   37    38     1     0     0
SMALL
abcg2


@<TRIPOS>ATOM
      1 C18        -44.8230   -26.3170     1.6250 ca         1 RK9      -0.093000
      2 C16        -44.4630   -28.7000     1.4690 ca         1 RK9       0.255000
      3 C17        -44.0850   -27.4470     1.9520 ca         1 RK9      -0.125000
      4 C10        -45.3720   -30.4810     3.8600 cc         1 RK9      -0.572500
      5 C20        -46.3390   -27.6840     0.3650 ca         1 RK9       0.008000
      6 C19        -45.9610   -26.4240     0.8390 ca         1 RK9      -0.086000
      7 C01        -52.0630   -28.9140     5.4130 c3         1 RK9      -0.079100
      8 C02        -50.6990   -28.7550     6.0670 c3         1 RK9      -0.145400
      9 C03        -49.5700   -29.3200     5.2420 c          1 RK9       0.598100
     10 C06        -47.1530   -29.5810     5.2000 cc         1 RK9       0.568300
     11 C08        -44.9630   -29.8730     5.0210 cd         1 RK9       0.472300
     12 C09        -43.5660   -29.6850     5.5030 c3         1 RK9      -0.151400
     13 C21        -47.5100   -27.8160    -0.4430 cg         1 RK9       0.319000
     14 C23        -45.5880   -28.8230     0.6620 ca         1 RK9      -0.086000
     15 N05        -48.3170   -29.1590     5.7850 ns         1 RK9      -0.475400
     16 N07        -45.9920   -29.3770     5.7740 nd         1 RK9      -0.742000
     17 N15        -43.6900   -29.8400     1.8090 nu         1 RK9      -0.867100
     18 N22        -48.4590   -27.9240    -1.0880 n1         1 RK9      -0.437000
     19 O04        -49.7090   -29.8850     4.1680 o          1 RK9      -0.556100
     20 O13        -45.3360   -31.7300     1.6410 o          1 RK9      -0.536500
     21 O14        -43.3080   -31.9090     3.0810 o          1 RK9      -0.536500
     22 S11        -47.1080   -30.4100     3.6790 ss         1 RK9       0.197600
     23 S12        -44.4100   -31.1340     2.5710 sy         1 RK9       1.223600
     24 H181       -44.5170   -25.3500     2.0010 ha         1 RK9       0.123000
     25 H171       -43.2110   -27.3650     2.5870 ha         1 RK9       0.117000
     26 H191       -46.5510   -25.5530     0.5920 ha         1 RK9       0.130000
     27 H013       -52.8320   -28.4820     6.0530 hc         1 RK9       0.050367
     28 H012       -52.0970   -28.4090     4.4470 hc         1 RK9       0.050367
     29 H011       -52.3020   -29.9660     5.2530 hc         1 RK9       0.050367
     30 H021       -50.6710   -29.2480     7.0440 hc         1 RK9       0.065700
     31 H022       -50.4740   -27.7010     6.2580 hc         1 RK9       0.065700
     32 H091       -43.4950   -29.9800     6.5510 hc         1 RK9       0.066367
     33 H093       -42.8540   -30.2650     4.9210 hc         1 RK9       0.066367
     34 H092       -43.2950   -28.6280     5.4370 hc         1 RK9       0.066367
     35 H231       -45.8830   -29.7870     0.2740 ha         1 RK9       0.163000
     36 H051       -48.2150   -28.6880     6.6750 hn         1 RK9       0.343500
     37 H151       -42.8090   -29.6190     2.2610 hn         1 RK9       0.487000
@<TRIPOS>BOND
     1     1     3 ar  
     2     1     6 ar  
     3     1    24 1   
     4     2     3 ar  
     5     2    14 ar  
     6     2    17 1   
     7     3    25 1   
     8     4    11 2   
     9     4    22 1   
    10     4    23 1   
    11     5     6 ar  
    12     5    13 1   
    13     5    14 ar  
    14     6    26 1   
    15     7     8 1   
    16     7    27 1   
    17     7    28 1   
    18     7    29 1   
    19     8     9 1   
    20     8    30 1   
    21     8    31 1   
    22     9    15 1   
    23     9    19 2   
    24    10    15 1   
    25    10    16 2   
    26    10    22 1   
    27    11    12 1   
    28    11    16 1   
    29    12    32 1   
    30    12    33 1   
    31    12    34 1   
    32    13    18 3   
    33    14    35 1   
    34    15    36 1   
    35    17    23 1   
    36    17    37 1   
    37    20    23 2   
    38    21    23 2   
@<TRIPOS>SUBSTRUCTURE
     1 RK9         1 TEMP              0 ****  ****    0 ROOT
