@<TRIPOS>MOLECULE
RK9
   37    38     1     0     0
SMALL
No Charge or Current Charge


@<TRIPOS>ATOM
      1 C18        -44.6120   -26.2920     1.4250 ca         1 RK9      -0.093000
      2 C16        -44.4310   -28.7230     1.5280 ca         1 RK9       0.255000
      3 C17        -43.8670   -27.4490     1.7120 ca         1 RK9      -0.125000
      4 C10        -45.3430   -30.5520     3.7640 cc         1 RK9      -0.572500
      5 C20        -46.4950   -27.6770     0.7400 ca         1 RK9       0.008000
      6 C19        -45.9280   -26.4050     0.9440 ca         1 RK9      -0.086000
      7 C01        -51.6770   -28.2530     5.3730 c3         1 RK9      -0.079100
      8 C02        -50.8790   -29.3670     6.0860 c3         1 RK9      -0.145400
      9 C03        -49.7530   -29.9130     5.2010 c          1 RK9       0.598100
     10 C06        -47.2950   -29.8580     4.9950 cc         1 RK9       0.568300
     11 C08        -45.0840   -29.7490     4.8400 cd         1 RK9       0.472300
     12 C09        -43.7450   -29.2580     5.3100 c3         1 RK9      -0.151400
     13 C21        -47.8380   -27.7990     0.2410 cg         1 RK9       0.319000
     14 C23        -45.7410   -28.8320     1.0260 ca         1 RK9      -0.086000
     15 N05        -48.4910   -29.5330     5.5750 ns         1 RK9      -0.475400
     16 N07        -46.2090   -29.3480     5.5440 nd         1 RK9      -0.742000
     17 N15        -43.6760   -29.8490     1.8350 nu         1 RK9      -0.867100
     18 N22        -48.9310   -27.9070    -0.1570 n1         1 RK9      -0.437000
     19 O04        -49.9750   -30.6510     4.2550 o          1 RK9      -0.556100
     20 O13        -44.8260   -32.0600     1.6560 o          1 RK9      -0.536500
     21 O14        -42.9630   -31.6250     3.3830 o          1 RK9      -0.536500
     22 S11        -47.0400   -30.8770     3.5920 ss         1 RK9       0.197600
     23 S12        -44.1640   -31.2210     2.6560 sy         1 RK9       1.223600
     24 H181       -44.1720   -25.3090     1.5780 ha         1 RK9       0.123000
     25 H171       -42.8520   -27.3510     2.0880 ha         1 RK9       0.117000
     26 H191       -46.5010   -25.5060     0.7260 ha         1 RK9       0.130000
     27 H013       -52.4800   -27.8800     6.0210 hc         1 RK9       0.050367
     28 H012       -51.0240   -27.4090     5.1170 hc         1 RK9       0.050367
     29 H011       -52.1320   -28.6290     4.4480 hc         1 RK9       0.050367
     30 H021       -51.5690   -30.1860     6.3200 hc         1 RK9       0.065700
     31 H022       -50.4680   -28.9540     7.0160 hc         1 RK9       0.065700
     32 H091       -43.8480   -28.5610     6.1490 hc         1 RK9       0.066367
     33 H093       -43.1200   -30.0910     5.6480 hc         1 RK9       0.066367
     34 H092       -43.2150   -28.7310     4.5100 hc         1 RK9       0.066367
     35 H231       -46.1710   -29.8130     0.8510 ha         1 RK9       0.163000
     36 H051       -48.4370   -28.9270     6.3800 hn         1 RK9       0.343500
     37 H151       -42.7380   -29.6840     2.1730 hn         1 RK9       0.487000
@<TRIPOS>BOND
     1     1     3 ar  
     2     1     6 ar  
     3     1    24 1   
     4     2     3 ar  
     5     2    14 ar  
     6     2    17 1   
     7     3    25 1   
     8     4    11 2   
     9     4    22 1   
    10     4    23 1   
    11     5     6 ar  
    12     5    13 1   
    13     5    14 ar  
    14     6    26 1   
    15     7     8 1   
    16     7    27 1   
    17     7    28 1   
    18     7    29 1   
    19     8     9 1   
    20     8    30 1   
    21     8    31 1   
    22     9    15 1   
    23     9    19 2   
    24    10    15 1   
    25    10    16 2   
    26    10    22 1   
    27    11    12 1   
    28    11    16 1   
    29    12    32 1   
    30    12    33 1   
    31    12    34 1   
    32    13    18 3   
    33    14    35 1   
    34    15    36 1   
    35    17    23 1   
    36    17    37 1   
    37    20    23 2   
    38    21    23 2   
@<TRIPOS>SUBSTRUCTURE
     1 RK9         1 TEMP              0 ****  ****    0 ROOT
