@<TRIPOS>MOLECULE
RKA
   60    64     1     0     0
SMALL
bcc


@<TRIPOS>ATOM
      1 C1          -0.6920    -3.2420    -0.2950 cc         1 RKA      -0.184500
      2 C2           0.7150    -3.2450    -0.2370 cc         1 RKA      -0.184500
      3 C3           1.1360    -1.9320    -0.1200 cd         1 RKA      -0.059800
      4 N4           0.0100    -1.1600    -0.1030 na         1 RKA      -0.144100
      5 C5          -1.1120    -1.9280    -0.2110 cd         1 RKA      -0.059800
      6 C6           2.4810    -1.3830    -0.0400 ca         1 RKA      -0.040500
      7 C7           2.7400    -0.0140     0.0030 ca         1 RKA      -0.094250
      8 C8           4.0270     0.4980     0.0780 ca         1 RKA      -0.172500
      9 C9           5.1230    -0.3660     0.1060 ca         1 RKA       0.177100
     10 C10          4.8750    -1.7440     0.0660 ca         1 RKA      -0.172500
     11 C11          3.5900    -2.2370    -0.0040 ca         1 RKA      -0.094250
     12 C12         -2.4570    -1.3730    -0.2060 ca         1 RKA      -0.040500
     13 C13         -3.5270    -2.1150    -0.7190 ca         1 RKA      -0.094250
     14 C14         -4.8120    -1.6170    -0.7100 ca         1 RKA      -0.172500
     15 C15         -5.0930    -0.3450    -0.1960 ca         1 RKA       0.177100
     16 C16         -4.0330     0.4100     0.3110 ca         1 RKA      -0.172500
     17 C17         -2.7460    -0.1090     0.3060 ca         1 RKA      -0.094250
     18 N18         -6.4210     0.0620    -0.2230 nu         1 RKA      -0.721100
     19 C19         -6.9910     1.2390     0.1800 ce         1 RKA       0.687300
     20 N20         -6.3010     2.2320     0.5880 n2         1 RKA      -0.830100
     21 C21         -8.4800     1.2350     0.0900 ca         1 RKA      -0.202900
     22 C22         -9.1400     2.3720    -0.3720 ca         1 RKA      -0.107000
     23 C23        -10.5250     2.4030    -0.4330 ca         1 RKA      -0.128000
     24 C24        -11.2660     1.3020    -0.0240 ca         1 RKA      -0.111500
     25 C25        -10.6150     0.1680     0.4430 ca         1 RKA      -0.128000
     26 C26         -9.2290     0.1310     0.4950 ca         1 RKA      -0.107000
     27 N27          6.4520     0.0340     0.1590 nu         1 RKA      -0.721100
     28 C28          6.9930     1.2890     0.2290 ce         1 RKA       0.687300
     29 N29          6.2780     2.3380     0.3530 n2         1 RKA      -0.830100
     30 C30          8.4830     1.2970     0.1500 ca         1 RKA      -0.202900
     31 C31          9.2050     2.1490     0.9830 ca         1 RKA      -0.107000
     32 C32         10.5880     2.1970     0.9070 ca         1 RKA      -0.128000
     33 C33         11.2640     1.4020    -0.0100 ca         1 RKA      -0.111500
     34 C34         10.5500     0.5560    -0.8470 ca         1 RKA      -0.128000
     35 C35          9.1650     0.4980    -0.7640 ca         1 RKA      -0.107000
     36 H1          -1.3340    -4.1060    -0.3650 ha         1 RKA       0.146500
     37 H2           1.3540    -4.1130    -0.2740 ha         1 RKA       0.146500
     38 HN4          0.0040    -0.1530    -0.0750 hn         1 RKA       0.293700
     39 H7           1.9300     0.7050    -0.0210 ha         1 RKA       0.127500
     40 H8           4.1760     1.5640     0.1180 ha         1 RKA       0.148750
     41 H10          5.7050    -2.4410     0.0900 ha         1 RKA       0.148750
     42 H11          3.4520    -3.3100    -0.0280 ha         1 RKA       0.127500
     43 H13         -3.3500    -3.0960    -1.1430 ha         1 RKA       0.127500
     44 H14         -5.6160    -2.2220    -1.1160 ha         1 RKA       0.148750
     45 H16         -4.2150     1.3940     0.7110 ha         1 RKA       0.148750
     46 H17         -1.9610     0.5020     0.7350 ha         1 RKA       0.127500
     47 HN18        -7.0460    -0.5970    -0.6590 hn         1 RKA       0.439300
     48 HN20        -6.9130     2.9840     0.8820 hn         1 RKA       0.392400
     49 H22         -8.5710     3.2320    -0.7050 ha         1 RKA       0.138500
     50 H23        -11.0250     3.2870    -0.8060 ha         1 RKA       0.136500
     51 H24        -12.3470     1.3280    -0.0680 ha         1 RKA       0.135000
     52 H25        -11.1850    -0.6910     0.7710 ha         1 RKA       0.136500
     53 H26         -8.7370    -0.7550     0.8760 ha         1 RKA       0.138500
     54 HN27         7.1120    -0.7260     0.2030 hn         1 RKA       0.439300
     55 HN29         6.8660     3.1640     0.3390 hn         1 RKA       0.392400
     56 H31          8.6870     2.7650     1.7080 ha         1 RKA       0.138500
     57 H32         11.1400     2.8540     1.5670 ha         1 RKA       0.136500
     58 H33         12.3440     1.4420    -0.0720 ha         1 RKA       0.135000
     59 H34         11.0700    -0.0580    -1.5700 ha         1 RKA       0.136500
     60 H35          8.6220    -0.1540    -1.4360 ha         1 RKA       0.138500
@<TRIPOS>BOND
     1     1     2 1   
     2     1     5 2   
     3     1    36 1   
     4     2     3 2   
     5     2    37 1   
     6     3     4 1   
     7     3     6 1   
     8     4     5 1   
     9     4    38 1   
    10     5    12 1   
    11     6     7 ar  
    12     6    11 ar  
    13     7     8 ar  
    14     7    39 1   
    15     8     9 ar  
    16     8    40 1   
    17     9    10 ar  
    18     9    27 1   
    19    10    11 ar  
    20    10    41 1   
    21    11    42 1   
    22    12    13 ar  
    23    12    17 ar  
    24    13    14 ar  
    25    13    43 1   
    26    14    15 ar  
    27    14    44 1   
    28    15    16 ar  
    29    15    18 1   
    30    16    17 ar  
    31    16    45 1   
    32    17    46 1   
    33    18    19 1   
    34    18    47 1   
    35    19    20 2   
    36    19    21 1   
    37    20    48 1   
    38    21    22 ar  
    39    21    26 ar  
    40    22    23 ar  
    41    22    49 1   
    42    23    24 ar  
    43    23    50 1   
    44    24    25 ar  
    45    24    51 1   
    46    25    26 ar  
    47    25    52 1   
    48    26    53 1   
    49    27    28 1   
    50    27    54 1   
    51    28    29 2   
    52    28    30 1   
    53    29    55 1   
    54    30    31 ar  
    55    30    35 ar  
    56    31    32 ar  
    57    31    56 1   
    58    32    33 ar  
    59    32    57 1   
    60    33    34 ar  
    61    33    58 1   
    62    34    35 ar  
    63    34    59 1   
    64    35    60 1   
@<TRIPOS>SUBSTRUCTURE
     1 RKA         1 TEMP              0 ****  ****    0 ROOT
