@<TRIPOS>MOLECULE
RKA
   60    64     1     0     0
SMALL
No Charge or Current Charge


@<TRIPOS>ATOM
      1 C1          -0.6820    -3.1210    -0.5250 cc         1 RKA      -0.166500
      2 C2           0.7220    -3.1240    -0.4680 cc         1 RKA      -0.166500
      3 C3           1.1680    -1.8470    -0.2530 cd         1 RKA      -0.110500
      4 N4           0.0110    -1.0540    -0.1780 na         1 RKA      -0.093000
      5 C5          -1.1390    -1.8420    -0.3460 cd         1 RKA      -0.110500
      6 C6           2.5620    -1.3740    -0.1240 ca         1 RKA      -0.040500
      7 C7           2.8400    -0.0080     0.0950 ca         1 RKA      -0.076250
      8 C8           4.1660     0.4430     0.2190 ca         1 RKA      -0.154500
      9 C9           5.2420    -0.4600     0.1360 ca         1 RKA       0.315500
     10 C10          4.9680    -1.8170    -0.0960 ca         1 RKA      -0.154500
     11 C11          3.6430    -2.2730    -0.2200 ca         1 RKA      -0.076250
     12 C12         -2.5360    -1.3640    -0.3290 ca         1 RKA      -0.040500
     13 C13         -3.6100    -2.2600    -0.5090 ca         1 RKA      -0.076250
     14 C14         -4.9390    -1.7980    -0.4920 ca         1 RKA      -0.154500
     15 C15         -5.2250    -0.4370    -0.3060 ca         1 RKA       0.315500
     16 C16         -4.1560     0.4580    -0.1120 ca         1 RKA      -0.154500
     17 C17         -2.8260     0.0020    -0.1270 ca         1 RKA      -0.076250
     18 N18         -6.5630    -0.0380    -0.2820 nu         1 RKA      -0.914700
     19 C19         -7.1900     1.1820    -0.4310 ce         1 RKA       0.687300
     20 N20         -6.6020     2.1840    -0.9570 n2         1 RKA      -0.830100
     21 C21         -8.6490     1.2340    -0.1010 ca         1 RKA      -0.202900
     22 C22         -9.5280     2.0840    -0.8140 ca         1 RKA      -0.089000
     23 C23        -10.8900     2.1560    -0.4710 ca         1 RKA      -0.110000
     24 C24        -11.3910     1.3950     0.5970 ca         1 RKA      -0.093500
     25 C25        -10.5260     0.5650     1.3270 ca         1 RKA      -0.110000
     26 C26         -9.1650     0.4890     0.9870 ca         1 RKA      -0.089000
     27 N27          6.5780    -0.0610     0.2340 nu         1 RKA      -0.914700
     28 C28          7.1950     1.0620     0.7440 ce         1 RKA       0.687300
     29 N29          6.5990     1.8550     1.5460 n2         1 RKA      -0.830100
     30 C30          8.6520     1.2230     0.4450 ca         1 RKA      -0.202900
     31 C31          9.5260     1.8280     1.3820 ca         1 RKA      -0.089000
     32 C32         10.8860     2.0110     1.0770 ca         1 RKA      -0.110000
     33 C33         11.3910     1.6110    -0.1690 ca         1 RKA      -0.093500
     34 C34         10.5330     1.0310    -1.1160 ca         1 RKA      -0.110000
     35 C35          9.1720     0.8440    -0.8160 ca         1 RKA      -0.089000
     36 H1          -1.2820    -4.0110    -0.6860 ha         1 RKA       0.128500
     37 H2           1.3300    -4.0160    -0.5810 ha         1 RKA       0.128500
     38 HN4          0.0070    -0.0530    -0.0240 hn         1 RKA       0.344000
     39 H7           2.0330     0.7160     0.1650 ha         1 RKA       0.109500
     40 H8           4.3460     1.5020     0.3660 ha         1 RKA       0.130750
     41 H10          5.7840    -2.5300    -0.1750 ha         1 RKA       0.130750
     42 H11          3.4690    -3.3310    -0.3930 ha         1 RKA       0.109500
     43 H13         -3.4260    -3.3190    -0.6630 ha         1 RKA       0.109500
     44 H14         -5.7490    -2.5090    -0.6330 ha         1 RKA       0.130750
     45 H16         -4.3450     1.5110     0.0660 ha         1 RKA       0.130750
     46 H17         -2.0260     0.7210     0.0250 ha         1 RKA       0.109500
     47 HN18        -7.2310    -0.7960    -0.1850 hn         1 RKA       0.494500
     48 HN20        -7.2560     2.9750    -0.9240 hn         1 RKA       0.392400
     49 H22         -9.1680     2.6790    -1.6510 ha         1 RKA       0.120500
     50 H23        -11.5580     2.8040    -1.0350 ha         1 RKA       0.118500
     51 H24        -12.4440     1.4540     0.8620 ha         1 RKA       0.117000
     52 H25        -10.9100    -0.0160     2.1630 ha         1 RKA       0.118500
     53 H26         -8.5110    -0.1450     1.5830 ha         1 RKA       0.120500
     54 HN27         7.2510    -0.7490    -0.0860 hn         1 RKA       0.494500
     55 HN29         7.2470     2.6250     1.7530 hn         1 RKA       0.392400
     56 H31          9.1630     2.1400     2.3590 ha         1 RKA       0.120500
     57 H32         11.5490     2.4650     1.8110 ha         1 RKA       0.118500
     58 H33         12.4440     1.7550    -0.4030 ha         1 RKA       0.117000
     59 H34         10.9200     0.7320    -2.0880 ha         1 RKA       0.118500
     60 H35          8.5220     0.4140    -1.5760 ha         1 RKA       0.120500
@<TRIPOS>BOND
     1     1     2 1   
     2     1     5 2   
     3     1    36 1   
     4     2     3 2   
     5     2    37 1   
     6     3     4 1   
     7     3     6 1   
     8     4     5 1   
     9     4    38 1   
    10     5    12 1   
    11     6     7 ar  
    12     6    11 ar  
    13     7     8 ar  
    14     7    39 1   
    15     8     9 ar  
    16     8    40 1   
    17     9    10 ar  
    18     9    27 1   
    19    10    11 ar  
    20    10    41 1   
    21    11    42 1   
    22    12    13 ar  
    23    12    17 ar  
    24    13    14 ar  
    25    13    43 1   
    26    14    15 ar  
    27    14    44 1   
    28    15    16 ar  
    29    15    18 1   
    30    16    17 ar  
    31    16    45 1   
    32    17    46 1   
    33    18    19 1   
    34    18    47 1   
    35    19    20 2   
    36    19    21 1   
    37    20    48 1   
    38    21    22 ar  
    39    21    26 ar  
    40    22    23 ar  
    41    22    49 1   
    42    23    24 ar  
    43    23    50 1   
    44    24    25 ar  
    45    24    51 1   
    46    25    26 ar  
    47    25    52 1   
    48    26    53 1   
    49    27    28 1   
    50    27    54 1   
    51    28    29 2   
    52    28    30 1   
    53    29    55 1   
    54    30    31 ar  
    55    30    35 ar  
    56    31    32 ar  
    57    31    56 1   
    58    32    33 ar  
    59    32    57 1   
    60    33    34 ar  
    61    33    58 1   
    62    34    35 ar  
    63    34    59 1   
    64    35    60 1   
@<TRIPOS>SUBSTRUCTURE
     1 RKA         1 TEMP              0 ****  ****    0 ROOT
