@<TRIPOS>MOLECULE
RKC
   43    47     1     0     0
SMALL
abcg2


@<TRIPOS>ATOM
      1 N1         -17.2050     3.6770    25.8890 nb         1 RKC      -0.656000
      2 C4         -23.4170     6.6460    30.3870 c6         1 RKC       0.161600
      3 C5         -22.1010     6.5190    29.6530 c6         1 RKC      -0.103400
      4 C6         -21.8010     5.0370    29.3510 c5         1 RKC      -0.076700
      5 C7         -22.5160     4.5470    28.0730 c5         1 RKC      -0.087400
      6 C8         -21.5430     4.8680    26.9350 c5         1 RKC       0.107000
      7 C10        -19.0120     4.9010    26.8960 ca         1 RKC      -0.080000
      8 C13        -17.2170     6.0860    25.7900 ca         1 RKC      -0.096000
      9 C15        -17.1690     8.4960    25.6650 ca         1 RKC      -0.110000
     10 C17        -19.0120     7.4030    26.8000 ca         1 RKC      -0.101000
     11 C20        -21.6430     2.8840    30.6550 ca         1 RKC      -0.054000
     12 C9         -20.3140     4.9560    28.9590 c          1 RKC       0.566000
     13 O          -23.3660     5.9700    31.6540 os         1 RKC      -0.343100
     14 C19        -22.1100     4.1970    30.5700 ca         1 RKC      -0.131300
     15 C3         -22.8550     4.7080    31.6380 ca         1 RKC       0.149100
     16 C2         -23.0990     3.9260    32.7700 ca         1 RKC      -0.134000
     17 C1         -22.6210     2.6300    32.8470 ca         1 RKC      -0.063000
     18 C          -21.8980     2.1160    31.7760 ca         1 RKC       0.092000
     19 CL         -21.2940     0.4700    31.8520 cl         1 RKC      -0.210000
     20 N          -20.2400     4.8580    27.6090 n          1 RKC      -0.255400
     21 C18        -18.4420     6.1420    26.5110 ca         1 RKC      -0.006000
     22 C16        -18.3840     8.5500    26.3840 ca         1 RKC      -0.088000
     23 C14        -16.5950     7.2860    25.3730 ca         1 RKC      -0.079000
     24 C12        -16.6600     4.8130    25.5170 ca         1 RKC       0.366900
     25 C11        -18.3750     3.7310    26.5740 ca         1 RKC       0.340900
     26 H1         -23.6470     7.6830    30.6200 h1         1 RKC       0.057700
     27 H2         -24.2400     6.2240    29.8010 h1         1 RKC       0.057700
     28 H3         -21.3060     6.9370    30.2730 hc         1 RKC       0.068700
     29 H4         -22.1390     7.0950    28.7260 hc         1 RKC       0.068700
     30 H5         -23.4850     5.0210    27.9310 hc         1 RKC       0.064700
     31 H6         -22.6700     3.4700    28.1300 hc         1 RKC       0.064700
     32 H7         -21.7280     5.8490    26.4890 h1         1 RKC       0.052200
     33 H8         -21.5590     4.1200    26.1440 h1         1 RKC       0.052200
     34 H9         -16.6960     9.4150    25.3470 ha         1 RKC       0.119000
     35 H10        -19.9410     7.4580    27.3500 ha         1 RKC       0.117000
     36 H11        -21.0680     2.4650    29.8400 ha         1 RKC       0.130000
     37 H12        -23.6730     4.3500    33.5830 ha         1 RKC       0.134000
     38 H13        -22.8130     2.0250    33.7220 ha         1 RKC       0.133000
     39 H14        -18.8250     9.5140    26.6080 ha         1 RKC       0.115000
     40 H15        -15.6620     7.2290    24.8240 ha         1 RKC       0.119000
     41 H16        -15.7240     4.7600    24.9680 h4         1 RKC       0.022100
     42 H17        -18.8110     2.7850    26.8730 h4         1 RKC       0.028100
     43 O1         -19.3620     5.0220    29.7230 o          1 RKC      -0.514000
@<TRIPOS>BOND
     1     1    24 ar  
     2     1    25 ar  
     3     2     3 1   
     4     2    13 1   
     5     2    26 1   
     6     2    27 1   
     7     3     4 1   
     8     3    28 1   
     9     3    29 1   
    10     4     5 1   
    11     4    12 1   
    12     4    14 1   
    13     5     6 1   
    14     5    30 1   
    15     5    31 1   
    16     6    20 1   
    17     6    32 1   
    18     6    33 1   
    19     7    20 1   
    20     7    21 ar  
    21     7    25 ar  
    22     8    21 ar  
    23     8    23 ar  
    24     8    24 ar  
    25     9    22 ar  
    26     9    23 ar  
    27     9    34 1   
    28    10    21 ar  
    29    10    22 ar  
    30    10    35 1   
    31    11    14 ar  
    32    11    18 ar  
    33    11    36 1   
    34    12    20 1   
    35    12    43 2   
    36    13    15 1   
    37    14    15 ar  
    38    15    16 ar  
    39    16    17 ar  
    40    16    37 1   
    41    17    18 ar  
    42    17    38 1   
    43    18    19 1   
    44    22    39 1   
    45    23    40 1   
    46    24    41 1   
    47    25    42 1   
@<TRIPOS>SUBSTRUCTURE
     1 RKC         1 TEMP              0 ****  ****    0 ROOT
