@<TRIPOS>MOLECULE
RKC
   43    47     1     0     0
SMALL
No Charge or Current Charge


@<TRIPOS>ATOM
      1 N1         -16.8670     3.8780    26.8960 nb         1 RKC      -0.656000
      2 C4         -23.5290     6.6020    30.8500 c6         1 RKC       0.161600
      3 C5         -22.1020     6.6280    30.2720 c6         1 RKC      -0.103400
      4 C6         -21.7170     5.2420    29.6740 c5         1 RKC      -0.076700
      5 C7         -22.3890     4.9340    28.2920 c5         1 RKC      -0.087400
      6 C8         -21.4250     5.6430    27.3020 c5         1 RKC       0.107000
      7 C10        -18.8980     5.2150    27.1820 ca         1 RKC      -0.080000
      8 C13        -17.1250     5.9660    25.6940 ca         1 RKC      -0.096000
      9 C15        -17.2420     8.1010    24.5280 ca         1 RKC      -0.110000
     10 C17        -19.0210     7.4430    26.0560 ca         1 RKC      -0.101000
     11 C20        -21.6610     2.7960    30.4620 ca         1 RKC      -0.054000
     12 C9         -20.2080     5.1910    29.3330 c          1 RKC       0.566000
     13 O          -23.6320     5.6020    31.8810 os         1 RKC      -0.343100
     14 C19        -22.1700     4.1080    30.6170 ca         1 RKC      -0.131300
     15 C3         -23.0950     4.3510    31.6660 ca         1 RKC       0.149100
     16 C2         -23.4730     3.3170    32.5390 ca         1 RKC      -0.134000
     17 C1         -22.9560     2.0220    32.3730 ca         1 RKC      -0.063000
     18 C          -22.0530     1.7650    31.3310 ca         1 RKC       0.092000
     19 Cl         -21.4020     0.1450    31.1160 cl         1 RKC      -0.210000
     20 N          -20.1170     5.3910    27.9450 n          1 RKC      -0.255400
     21 C18        -18.3720     6.2130    26.3140 ca         1 RKC      -0.006000
     22 C16        -18.4610     8.3760    25.1660 ca         1 RKC      -0.088000
     23 C14        -16.5700     6.8990    24.7970 ca         1 RKC      -0.079000
     24 C12        -16.4250     4.7840    26.0000 ca         1 RKC       0.366900
     25 C11        -18.0590     4.1150    27.4870 ca         1 RKC       0.340900
     26 H1         -23.7890     7.5810    31.2760 h1         1 RKC       0.057700
     27 H2         -24.2570     6.3730    30.0590 h1         1 RKC       0.057700
     28 H3         -21.4020     6.8910    31.0770 hc         1 RKC       0.068700
     29 H4         -22.0160     7.4210    29.5170 hc         1 RKC       0.068700
     30 H5         -23.4190     5.2960    28.2070 hc         1 RKC       0.064700
     31 H6         -22.4130     3.8600    28.0720 hc         1 RKC       0.064700
     32 H7         -21.6530     6.7140    27.2510 h1         1 RKC       0.052200
     33 H8         -21.4820     5.2200    26.2900 h1         1 RKC       0.052200
     34 H9         -16.8120     8.8250    23.8400 ha         1 RKC       0.119000
     35 H10        -19.9490     7.7070    26.5460 ha         1 RKC       0.117000
     36 H11        -20.9550     2.5680    29.6680 ha         1 RKC       0.130000
     37 H12        -24.1740     3.5220    33.3440 ha         1 RKC       0.134000
     38 H13        -23.2540     1.2230    33.0460 ha         1 RKC       0.133000
     39 H14        -18.9730     9.3160    24.9740 ha         1 RKC       0.115000
     40 H15        -15.6140     6.7000    24.3170 ha         1 RKC       0.119000
     41 H16        -15.4610     4.5720    25.5380 h4         1 RKC       0.022100
     42 H17        -18.3820     3.3560    28.1990 h4         1 RKC       0.028100
     43 O1         -19.2650     4.9680    30.0820 o          1 RKC      -0.514000
@<TRIPOS>BOND
     1     1    24 ar  
     2     1    25 ar  
     3     2     3 1   
     4     2    13 1   
     5     2    26 1   
     6     2    27 1   
     7     3     4 1   
     8     3    28 1   
     9     3    29 1   
    10     4     5 1   
    11     4    12 1   
    12     4    14 1   
    13     5     6 1   
    14     5    30 1   
    15     5    31 1   
    16     6    20 1   
    17     6    32 1   
    18     6    33 1   
    19     7    20 1   
    20     7    21 ar  
    21     7    25 ar  
    22     8    21 ar  
    23     8    23 ar  
    24     8    24 ar  
    25     9    22 ar  
    26     9    23 ar  
    27     9    34 1   
    28    10    21 ar  
    29    10    22 ar  
    30    10    35 1   
    31    11    14 ar  
    32    11    18 ar  
    33    11    36 1   
    34    12    20 1   
    35    12    43 2   
    36    13    15 1   
    37    14    15 ar  
    38    15    16 ar  
    39    16    17 ar  
    40    16    37 1   
    41    17    18 ar  
    42    17    38 1   
    43    18    19 1   
    44    22    39 1   
    45    23    40 1   
    46    24    41 1   
    47    25    42 1   
@<TRIPOS>SUBSTRUCTURE
     1 RKC         1 TEMP              0 ****  ****    0 ROOT
