@<TRIPOS>MOLECULE
RKD
   39    41     1     0     0
SMALL
abcg2


@<TRIPOS>ATOM
      1 N1          -0.0370    -3.8250     0.4560 nz         1 RKD      -0.964000
      2 C2          -1.0810    -2.8220     0.7700 c3         1 RKD       0.112600
      3 C4          -2.1530    -0.6680     0.0170 ca         1 RKD      -0.135300
      4 C5          -2.2730     0.4120    -0.8570 ca         1 RKD      -0.088500
      5 C6          -3.2520     1.3720    -0.6840 ca         1 RKD      -0.089500
      6 C7          -4.1260     1.2590     0.3890 ca         1 RKD       0.139000
      7 O7          -1.3120    -2.3510    -1.4900 oh         1 RKD      -0.687000
      8 CL8         -5.3540     2.4570     0.6180 cl         1 RKD      -0.157000
      9 C9          -4.0260     0.2030     1.2760 ca         1 RKD      -0.089500
     10 C10         -3.0400    -0.7570     1.0820 ca         1 RKD      -0.088500
     11 C11          0.3050    -1.0230    -0.2400 ca         1 RKD      -0.214300
     12 C12          1.2530    -1.2410    -1.2330 ca         1 RKD      -0.098500
     13 C13          2.5030    -0.6400    -1.1620 ca         1 RKD      -0.109500
     14 C14          2.8470     0.1880    -0.0960 ca         1 RKD       0.073000
     15 C15          1.8930     0.3940     0.9050 ca         1 RKD      -0.109500
     16 C16          0.6480    -0.2020     0.8350 ca         1 RKD      -0.098500
     17 C17          4.1610     0.8210    -0.0310 cc         1 RKD      -0.204000
     18 C18          5.0830     1.0340    -1.0800 cc         1 RKD       0.263900
     19 N19          6.1750     1.6350    -0.6530 nd         1 RKD      -0.492800
     20 N20          5.9810     1.8100     0.6480 na         1 RKD       0.013800
     21 C21          4.8000     1.3470     1.0760 cd         1 RKD      -0.134000
     22 C60         -1.0640    -1.6970    -0.2680 c3         1 RKD       0.288600
     23 HN1          0.9030    -3.4260     0.4800 hn         1 RKD       0.515333
     24 HN1A        -0.0520    -4.5890     1.1300 hn         1 RKD       0.515333
     25 HN1B        -0.1720    -4.2360    -0.4680 hn         1 RKD       0.515333
     26 HN20         6.6950     2.2490     1.2080 hn         1 RKD       0.387000
     27 H2          -2.0310    -3.3530     0.7700 hx         1 RKD       0.110200
     28 H2A         -0.8780    -2.4520     1.7720 hx         1 RKD       0.110200
     29 HO7         -1.2360    -1.7290    -2.2230 ho         1 RKD       0.494000
     30 H5          -1.5830     0.5300    -1.6850 ha         1 RKD       0.112000
     31 H6          -3.3290     2.2030    -1.3720 ha         1 RKD       0.146000
     32 H9          -4.7050     0.1190     2.1130 ha         1 RKD       0.146000
     33 H10         -2.9910    -1.5710     1.7930 ha         1 RKD       0.112000
     34 H16         -0.0690    -0.0140     1.6250 ha         1 RKD       0.119000
     35 H15          2.1170     1.0410     1.7440 ha         1 RKD       0.132500
     36 H13          3.2200    -0.8350    -1.9490 ha         1 RKD       0.132500
     37 H12          1.0380    -1.8870    -2.0750 ha         1 RKD       0.119000
     38 H18          4.9760     0.7820    -2.1250 h4         1 RKD       0.044100
     39 H21          4.5110     1.4100     2.1120 h4         1 RKD       0.160000
@<TRIPOS>BOND
     1     1     2 1   
     2     1    23 1   
     3     1    24 1   
     4     1    25 1   
     5     2    22 1   
     6     2    27 1   
     7     2    28 1   
     8     3     4 ar  
     9     3    10 ar  
    10     3    22 1   
    11     4     5 ar  
    12     4    30 1   
    13     5     6 ar  
    14     5    31 1   
    15     6     8 1   
    16     6     9 ar  
    17     7    22 1   
    18     7    29 1   
    19     9    10 ar  
    20     9    32 1   
    21    10    33 1   
    22    11    12 ar  
    23    11    16 ar  
    24    11    22 1   
    25    12    13 ar  
    26    12    37 1   
    27    13    14 ar  
    28    13    36 1   
    29    14    15 ar  
    30    14    17 1   
    31    15    16 ar  
    32    15    35 1   
    33    16    34 1   
    34    17    18 1   
    35    17    21 2   
    36    18    19 2   
    37    18    38 1   
    38    19    20 1   
    39    20    21 1   
    40    20    26 1   
    41    21    39 1   
@<TRIPOS>SUBSTRUCTURE
     1 RKD         1 TEMP              0 ****  ****    0 ROOT
