@<TRIPOS>MOLECULE
RKD
   39    41     1     0     0
SMALL
No Charge or Current Charge


@<TRIPOS>ATOM
      1 N1           0.0490    -3.8800     0.5610 nz         1 RKD      -0.964000
      2 C2          -1.0720    -2.8830     0.8050 c3         1 RKD       0.112600
      3 C4          -2.1750    -0.6700     0.0210 ca         1 RKD      -0.135300
      4 C5          -2.1180     0.5700    -0.6590 ca         1 RKD      -0.088500
      5 C6          -3.1030     1.5510    -0.4530 ca         1 RKD      -0.089500
      6 C7          -4.1630     1.3070     0.4310 ca         1 RKD       0.139000
      7 O7          -1.3570    -2.3090    -1.5030 oh         1 RKD      -0.687000
      8 Cl8         -5.3960     2.5350     0.6880 cl         1 RKD      -0.157000
      9 C9          -4.2420     0.0810     1.1070 ca         1 RKD      -0.089500
     10 C10         -3.2580    -0.9040     0.9050 ca         1 RKD      -0.088500
     11 C11          0.3160    -1.0620    -0.2350 ca         1 RKD      -0.214300
     12 C12          1.2410    -1.2270    -1.2930 ca         1 RKD      -0.098500
     13 C13          2.5050    -0.6140    -1.2400 ca         1 RKD      -0.109500
     14 C14          2.8860     0.1730    -0.1360 ca         1 RKD       0.073000
     15 C15          1.9670     0.3300     0.9220 ca         1 RKD      -0.109500
     16 C16          0.7030    -0.2810     0.8740 ca         1 RKD      -0.098500
     17 C17          4.2150     0.8020    -0.1110 cc         1 RKD      -0.204000
     18 C18          5.2520     0.7590    -1.0580 cc         1 RKD       0.263900
     19 N19          6.3200     1.4480    -0.7070 nd         1 RKD      -0.492800
     20 N20          5.9520     1.9660     0.5370 na         1 RKD       0.013800
     21 C21          4.6600     1.5790     0.9210 cd         1 RKD      -0.134000
     22 C60         -1.0770    -1.7220    -0.2340 c3         1 RKD       0.288600
     23 HN1          0.9810    -3.4430     0.6160 hn         1 RKD       0.515333
     24 HN1A         0.0540    -4.6740     1.2190 hn         1 RKD       0.515333
     25 HN1B        -0.0080    -4.2830    -0.3860 hn         1 RKD       0.515333
     26 HN20         6.5860     2.5570     1.0750 hn         1 RKD       0.387000
     27 H2          -2.0320    -3.4040     0.7520 hx         1 RKD       0.110200
     28 H2A         -0.9630    -2.4560     1.8060 hx         1 RKD       0.110200
     29 HO7         -1.4970    -1.5550    -2.1150 ho         1 RKD       0.494000
     30 H5          -1.3040     0.7820    -1.3490 ha         1 RKD       0.112000
     31 H6          -3.0440     2.5010    -0.9790 ha         1 RKD       0.146000
     32 H9          -5.0690    -0.1070     1.7880 ha         1 RKD       0.146000
     33 H10         -3.3600    -1.8430     1.4410 ha         1 RKD       0.112000
     34 H16          0.0180    -0.1390     1.7070 ha         1 RKD       0.119000
     35 H15          2.2200     0.9270     1.7930 ha         1 RKD       0.132500
     36 H13          3.1900    -0.7600    -2.0700 ha         1 RKD       0.132500
     37 H12          0.9990    -1.8320    -2.1640 ha         1 RKD       0.119000
     38 H18          5.2610     0.2390    -2.0060 h4         1 RKD       0.044100
     39 H21          4.2070     1.8870     1.8570 h4         1 RKD       0.160000
@<TRIPOS>BOND
     1     1     2 1   
     2     1    23 1   
     3     1    24 1   
     4     1    25 1   
     5     2    22 1   
     6     2    27 1   
     7     2    28 1   
     8     3     4 ar  
     9     3    10 ar  
    10     3    22 1   
    11     4     5 ar  
    12     4    30 1   
    13     5     6 ar  
    14     5    31 1   
    15     6     8 1   
    16     6     9 ar  
    17     7    22 1   
    18     7    29 1   
    19     9    10 ar  
    20     9    32 1   
    21    10    33 1   
    22    11    12 ar  
    23    11    16 ar  
    24    11    22 1   
    25    12    13 ar  
    26    12    37 1   
    27    13    14 ar  
    28    13    36 1   
    29    14    15 ar  
    30    14    17 1   
    31    15    16 ar  
    32    15    35 1   
    33    16    34 1   
    34    17    18 1   
    35    17    21 2   
    36    18    19 2   
    37    18    38 1   
    38    19    20 1   
    39    20    21 1   
    40    20    26 1   
    41    21    39 1   
@<TRIPOS>SUBSTRUCTURE
     1 RKD         1 TEMP              0 ****  ****    0 ROOT
