@<TRIPOS>MOLECULE
RKE
   32    33     1     0     0
SMALL
bcc


@<TRIPOS>ATOM
      1 CAA         -3.2730     1.0770     0.0990 ca         1 RKE      -0.124000
      2 CAB         -3.7210    -0.2270    -0.0310 ca         1 RKE      -0.118000
      3 CAC         -1.9110     1.3410     0.1450 ca         1 RKE      -0.120000
      4 CAD         -2.8000    -1.2590    -0.1050 ca         1 RKE      -0.119000
      5 CAE         -0.9570     0.3310     0.0540 ca         1 RKE      -0.084300
      6 CAF         -1.4440    -0.9730    -0.0610 ca         1 RKE       0.047400
      7 CAG          1.2300    -0.1180     1.2110 c          1 RKE       0.597100
      8 CAH          2.7080    -0.3830     1.0810 c6         1 RKE      -0.166400
      9 CAI          3.1600    -0.7190    -0.3360 c6         1 RKE      -0.066400
     10 CAJ          2.6630     0.3240    -1.3230 c6         1 RKE      -0.070400
     11 CAK          1.1410     0.3670    -1.3170 c6         1 RKE      -0.065400
     12 CAL          0.5360     0.6550     0.0700 c6         1 RKE       0.163500
     13 NAN          0.8620     2.0160     0.4760 n7         1 RKE      -0.855200
     14 OAO          0.6230    -0.3660     2.2280 o          1 RKE      -0.521100
     15 CLAP        -0.3580    -2.3350    -0.1230 cl         1 RKE      -0.117400
     16 HAA         -3.9790     1.8940     0.1700 ha         1 RKE       0.135000
     17 HAB         -4.7800    -0.4470    -0.0670 ha         1 RKE       0.137000
     18 HAC         -1.5900     2.3660     0.2620 ha         1 RKE       0.130000
     19 HAD         -3.1330    -2.2850    -0.1920 ha         1 RKE       0.148000
     20 HAH          3.2130     0.5310     1.4090 hc         1 RKE       0.070700
     21 HAHA         2.9840    -1.1640     1.7900 hc         1 RKE       0.070700
     22 HAI          4.2490    -0.7880    -0.3590 hc         1 RKE       0.044200
     23 HAIA         2.7790    -1.7030    -0.6230 hc         1 RKE       0.044200
     24 HAJ          3.0870     1.3010    -1.0750 hc         1 RKE       0.046200
     25 HAJA         3.0030     0.0830    -2.3320 hc         1 RKE       0.046200
     26 HAK          0.7650     1.1090    -2.0240 hc         1 RKE       0.051700
     27 HAKA         0.7730    -0.5920    -1.6820 hc         1 RKE       0.051700
     28 HAM          0.9180     4.0340     0.0540 h1         1 RKE       0.030700
     29 HAMA         1.6710     3.0400    -1.1760 h1         1 RKE       0.030700
     30 HAMB        -0.0870     3.1550    -1.0950 h1         1 RKE       0.030700
     31 HNAN         0.3620     2.2670     1.3180 hn         1 RKE       0.381800
     32 CAM          0.8250     3.0960    -0.4920 c3         1 RKE       0.169100
@<TRIPOS>BOND
     1     1     2 ar  
     2     1     3 ar  
     3     1    16 1   
     4     2     4 ar  
     5     2    17 1   
     6     3     5 ar  
     7     3    18 1   
     8     4     6 ar  
     9     4    19 1   
    10     5     6 ar  
    11     5    12 1   
    12     6    15 1   
    13     7     8 1   
    14     7    12 1   
    15     7    14 2   
    16     8     9 1   
    17     8    20 1   
    18     8    21 1   
    19     9    10 1   
    20     9    22 1   
    21     9    23 1   
    22    10    11 1   
    23    10    24 1   
    24    10    25 1   
    25    11    12 1   
    26    11    26 1   
    27    11    27 1   
    28    12    13 1   
    29    13    31 1   
    30    13    32 1   
    31    28    32 1   
    32    29    32 1   
    33    30    32 1   
@<TRIPOS>SUBSTRUCTURE
     1 RKE         1 TEMP              0 ****  ****    0 ROOT
