@<TRIPOS>MOLECULE
RKE
   32    33     1     0     0
SMALL
No Charge or Current Charge


@<TRIPOS>ATOM
      1 CAA         -3.3170     1.0810     0.1720 ca         1 RKE      -0.106000
      2 CAB         -3.7500    -0.2380     0.0020 ca         1 RKE      -0.100000
      3 CAC         -1.9450     1.3800     0.2050 ca         1 RKE      -0.102000
      4 CAD         -2.8030    -1.2620    -0.1240 ca         1 RKE      -0.101000
      5 CAE         -0.9580     0.3660     0.0560 ca         1 RKE      -0.084300
      6 CAF         -1.4260    -0.9780    -0.0940 ca         1 RKE       0.139000
      7 CAG          1.2430    -0.1500     1.2530 c          1 RKE       0.597100
      8 CAH          2.7340    -0.5210     1.1140 c6         1 RKE      -0.166400
      9 CAI          3.2030    -0.8280    -0.3240 c6         1 RKE      -0.066400
     10 CAJ          2.7620     0.2890    -1.2890 c6         1 RKE      -0.070400
     11 CAK          1.2220     0.3950    -1.3150 c6         1 RKE      -0.065400
     12 CAL          0.5770     0.7080     0.0890 c6         1 RKE       0.163500
     13 NAN          0.8280     2.1660     0.4420 n7         1 RKE      -0.910400
     14 OAO          0.6420    -0.4300     2.2880 o          1 RKE      -0.521100
     15 ClAP        -0.3520    -2.3800    -0.2160 cl         1 RKE      -0.209000
     16 HAA         -4.0480     1.8790     0.2840 ha         1 RKE       0.117000
     17 HAB         -4.8130    -0.4680    -0.0210 ha         1 RKE       0.119000
     18 HAC         -1.6780     2.4200     0.3550 ha         1 RKE       0.112000
     19 HAD         -3.1370    -2.2900    -0.2410 ha         1 RKE       0.130000
     20 HAH          3.2810     0.3770     1.4320 hc         1 RKE       0.070700
     21 HAHA         2.9910    -1.3160     1.8270 hc         1 RKE       0.070700
     22 HAI          4.2970    -0.9300    -0.3450 hc         1 RKE       0.044200
     23 HAIA         2.7930    -1.7930    -0.6540 hc         1 RKE       0.044200
     24 HAJ          3.2080     1.2490    -0.9920 hc         1 RKE       0.046200
     25 HAJA         3.1340     0.0720    -2.3000 hc         1 RKE       0.046200
     26 HAK          0.9070     1.1240    -2.0720 hc         1 RKE       0.051700
     27 HAKA         0.8400    -0.5510    -1.7110 hc         1 RKE       0.051700
     28 HAM          0.8340     4.2270    -0.1020 h1         1 RKE       0.030700
     29 HAMA         1.5270     3.1550    -1.3260 h1         1 RKE       0.030700
     30 HAMB        -0.2350     3.2200    -1.1030 h1         1 RKE       0.030700
     31 HNAN         0.2290     2.4120     1.2410 hn         1 RKE       0.437000
     32 CAM          0.7290     3.2420    -0.5770 c3         1 RKE       0.169100
@<TRIPOS>BOND
     1     1     2 ar  
     2     1     3 ar  
     3     1    16 1   
     4     2     4 ar  
     5     2    17 1   
     6     3     5 ar  
     7     3    18 1   
     8     4     6 ar  
     9     4    19 1   
    10     5     6 ar  
    11     5    12 1   
    12     6    15 1   
    13     7     8 1   
    14     7    12 1   
    15     7    14 2   
    16     8     9 1   
    17     8    20 1   
    18     8    21 1   
    19     9    10 1   
    20     9    22 1   
    21     9    23 1   
    22    10    11 1   
    23    10    24 1   
    24    10    25 1   
    25    11    12 1   
    26    11    26 1   
    27    11    27 1   
    28    12    13 1   
    29    13    31 1   
    30    13    32 1   
    31    28    32 1   
    32    29    32 1   
    33    30    32 1   
@<TRIPOS>SUBSTRUCTURE
     1 RKE         1 TEMP              0 ****  ****    0 ROOT
