@<TRIPOS>MOLECULE
RKG
   33    36     1     0     0
SMALL
abcg2


@<TRIPOS>ATOM
      1 C13          1.4340     1.5180    -0.4230 c6         1 RKG      -0.003100
      2 C01         -5.3780    -0.7640     0.1040 c3         1 RKG       0.169900
      3 C03         -3.2870     0.3050     0.2170 c          1 RKG       0.647100
      4 C06         -1.4500    -0.6760    -1.1590 c5         1 RKG       0.118000
      5 C07          0.0640    -0.6150    -0.9230 c5         1 RKG      -0.106700
      6 C08          0.6520    -1.7960    -0.1310 c5         1 RKG      -0.093400
      7 C09          1.4560    -1.0770     0.9540 c5         1 RKG       0.143000
      8 C11          0.2850     0.6040     0.0210 c5         1 RKG       0.151000
      9 C12         -1.0600     1.2950     0.1240 c5         1 RKG       0.120000
     10 C14          2.6750     0.7270    -0.2130 cc         1 RKG      -0.199300
     11 C16          4.7080    -0.0790    -0.1910 cc         1 RKG       0.390400
     12 C18          2.7180    -0.4850     0.4110 cd         1 RKG       0.207300
     13 N05         -2.0020     0.2370    -0.1700 n          1 RKG      -0.399800
     14 N15          3.9620     0.9750    -0.5900 na         1 RKG      -0.288500
     15 N17          3.9850    -0.9870     0.4200 nd         1 RKG      -0.651000
     16 O02         -4.0110    -0.6970    -0.2880 os         1 RKG      -0.455100
     17 O04         -3.7440     1.1640     0.9480 o          1 RKG      -0.542000
     18 O10          0.6050     0.0170     1.2760 os         1 RKG      -0.427000
     19 H1           1.2990     1.7990    -1.4710 hc         1 RKG       0.060200
     20 H2           1.4390     2.4460     0.1600 hc         1 RKG       0.060200
     21 H3          -5.9310     0.1250    -0.2020 h1         1 RKG       0.047367
     22 H4          -5.7900    -1.6300    -0.4060 h1         1 RKG       0.047367
     23 H5          -5.4840    -0.8980     1.1800 h1         1 RKG       0.047367
     24 H6          -1.6990    -0.3450    -2.1720 h1         1 RKG       0.054700
     25 H7          -1.8420    -1.6840    -1.0300 h1         1 RKG       0.054700
     26 H8           0.5830    -0.4840    -1.8730 hc         1 RKG       0.068700
     27 H9          -0.1370    -2.3980     0.3270 hc         1 RKG       0.064200
     28 H10          1.2630    -2.4570    -0.7450 hc         1 RKG       0.064200
     29 H11          1.6200    -1.6800     1.8490 h1         1 RKG       0.105700
     30 H12         -1.2270     1.7270     1.1100 h1         1 RKG       0.068700
     31 H13         -1.1310     2.1030    -0.6150 h1         1 RKG       0.068700
     32 H14          5.7720    -0.1290    -0.3670 h5         1 RKG       0.057100
     33 H15          4.3010     1.7870    -1.0810 hn         1 RKG       0.352000
@<TRIPOS>BOND
     1     1     8 1   
     2     1    10 1   
     3     1    19 1   
     4     1    20 1   
     5     2    16 1   
     6     2    21 1   
     7     2    22 1   
     8     2    23 1   
     9     3    13 1   
    10     3    16 1   
    11     3    17 2   
    12     4     5 1   
    13     4    13 1   
    14     4    24 1   
    15     4    25 1   
    16     5     6 1   
    17     5     8 1   
    18     5    26 1   
    19     6     7 1   
    20     6    27 1   
    21     6    28 1   
    22     7    12 1   
    23     7    18 1   
    24     7    29 1   
    25     8     9 1   
    26     8    18 1   
    27     9    13 1   
    28     9    30 1   
    29     9    31 1   
    30    10    12 2   
    31    10    14 1   
    32    11    14 1   
    33    11    15 2   
    34    11    32 1   
    35    12    15 1   
    36    14    33 1   
@<TRIPOS>SUBSTRUCTURE
     1 RKG         1 TEMP              0 ****  ****    0 ROOT
