@<TRIPOS>MOLECULE
RKG
   33    36     1     0     0
SMALL
No Charge or Current Charge


@<TRIPOS>ATOM
      1 C13          1.4980     1.4450    -0.4290 c6         1 RKG      -0.003100
      2 C01         -5.6220    -0.5800     0.0360 c3         1 RKG       0.169900
      3 C03         -3.4600     0.4720     0.0980 c          1 RKG       0.647100
      4 C06         -1.5210    -1.0120    -0.5960 c5         1 RKG       0.118000
      5 C07         -0.0800    -0.5930    -1.0310 c5         1 RKG      -0.106700
      6 C08          0.9080    -1.7490    -0.6220 c5         1 RKG      -0.093400
      7 C09          1.5310    -1.2220     0.7160 c5         1 RKG       0.143000
      8 C11          0.2700     0.5500    -0.0400 c5         1 RKG       0.151000
      9 C12         -1.0810     1.3050     0.1510 c5         1 RKG       0.120000
     10 C14          2.7850     0.6960    -0.1780 cc         1 RKG      -0.199300
     11 C16          4.8950     0.0180     0.0300 cc         1 RKG       0.390400
     12 C18          2.8600    -0.5440     0.3810 cd         1 RKG       0.207300
     13 N05         -2.0970     0.2740    -0.1560 n          1 RKG      -0.399800
     14 N15          4.0940     1.0620    -0.3980 na         1 RKG      -0.288500
     15 N17          4.1590    -0.9830     0.5080 nd         1 RKG      -0.651000
     16 O02         -4.2010    -0.6450    -0.1800 os         1 RKG      -0.455100
     17 O04         -3.9200     1.5250     0.5160 o          1 RKG      -0.542000
     18 O10          0.5800    -0.2140     1.1510 os         1 RKG      -0.427000
     19 H1           1.4160     1.7540    -1.4800 hc         1 RKG       0.060200
     20 H2           1.4760     2.3670     0.1670 hc         1 RKG       0.060200
     21 H3          -6.0780     0.2020    -0.5850 h1         1 RKG       0.047367
     22 H4          -6.0920    -1.5370    -0.2240 h1         1 RKG       0.047367
     23 H5          -5.8490    -0.3650     1.0890 h1         1 RKG       0.047367
     24 H6          -2.0790    -1.4580    -1.4300 h1         1 RKG       0.054700
     25 H7          -1.5230    -1.7240     0.2400 h1         1 RKG       0.054700
     26 H8          -0.0230    -0.2930    -2.0840 hc         1 RKG       0.068700
     27 H9           0.4030    -2.7120    -0.4810 hc         1 RKG       0.064200
     28 H10          1.6750    -1.9160    -1.3880 hc         1 RKG       0.064200
     29 H11          1.6710    -1.9960     1.4820 h1         1 RKG       0.105700
     30 H12         -1.1860     1.6960     1.1710 h1         1 RKG       0.068700
     31 H13         -1.1690     2.1460    -0.5490 h1         1 RKG       0.068700
     32 H14          5.9770     0.0490    -0.0360 h5         1 RKG       0.057100
     33 H15          4.4310     1.9300    -0.7960 hn         1 RKG       0.352000
@<TRIPOS>BOND
     1     1     8 1   
     2     1    10 1   
     3     1    19 1   
     4     1    20 1   
     5     2    16 1   
     6     2    21 1   
     7     2    22 1   
     8     2    23 1   
     9     3    13 1   
    10     3    16 1   
    11     3    17 2   
    12     4     5 1   
    13     4    13 1   
    14     4    24 1   
    15     4    25 1   
    16     5     6 1   
    17     5     8 1   
    18     5    26 1   
    19     6     7 1   
    20     6    27 1   
    21     6    28 1   
    22     7    12 1   
    23     7    18 1   
    24     7    29 1   
    25     8     9 1   
    26     8    18 1   
    27     9    13 1   
    28     9    30 1   
    29     9    31 1   
    30    10    12 2   
    31    10    14 1   
    32    11    14 1   
    33    11    15 2   
    34    11    32 1   
    35    12    15 1   
    36    14    33 1   
@<TRIPOS>SUBSTRUCTURE
     1 RKG         1 TEMP              0 ****  ****    0 ROOT
