@<TRIPOS>MOLECULE
RKH
   31    33     1     0     0
SMALL
abcg2


@<TRIPOS>ATOM
      1 C1         -24.6010    21.1010   -26.5530 c3         1 RKH      -0.030900
      2 N1         -19.3100    29.6830   -30.4280 nv         1 RKH      -1.054400
      3 O1         -24.5600    23.3260   -27.5030 os         1 RKH      -0.176200
      4 C2         -23.8560    22.3360   -26.8820 cc         1 RKH       0.032900
      5 N2         -18.5320    29.0390   -28.3690 nb         1 RKH      -0.812000
      6 C3         -22.5700    22.7010   -26.6860 cd         1 RKH      -0.235200
      7 N3         -17.6630    28.4810   -26.3230 nv         1 RKH      -1.054400
      8 C4         -22.4400    24.0280   -27.2200 ca         1 RKH      -0.113800
      9 C5         -23.7070    24.3520   -27.7090 ca         1 RKH       0.065100
     10 C6         -23.9980    25.5610   -28.3140 ca         1 RKH      -0.109000
     11 C7         -22.9550    26.4650   -28.4270 ca         1 RKH      -0.077000
     12 C8         -21.6650    26.1790   -27.9480 cp         1 RKH      -0.066000
     13 C9         -21.4080    24.9550   -27.3380 ca         1 RKH      -0.043000
     14 C10        -20.5830    27.1770   -28.0920 cp         1 RKH       0.081000
     15 C11        -20.4780    27.9440   -29.2470 ca         1 RKH      -0.276000
     16 C12        -19.4310    28.8700   -29.3370 ca         1 RKH       0.634400
     17 C13        -18.6360    28.3020   -27.2660 ca         1 RKH       0.634400
     18 C14        -19.6520    27.3570   -27.0760 ca         1 RKH      -0.276000
     19 H1         -25.4310    21.3050   -25.8740 hc         1 RKH       0.057033
     20 H2         -25.0140    20.6330   -27.4480 hc         1 RKH       0.057033
     21 H3         -23.9370    20.3870   -26.0720 hc         1 RKH       0.057033
     22 H4         -18.4030    30.0940   -30.5750 hn         1 RKH       0.468000
     23 H5         -19.7660    29.3870   -31.2760 hn         1 RKH       0.468000
     24 H6         -21.8070    22.0990   -26.2180 ha         1 RKH       0.212000
     25 H7         -17.1530    29.3470   -26.3700 hn         1 RKH       0.468000
     26 H8         -17.8640    28.1720   -25.3870 hn         1 RKH       0.468000
     27 H9         -24.9900    25.7970   -28.6770 ha         1 RKH       0.131000
     28 H10        -23.1500    27.4280   -28.8820 ha         1 RKH       0.121000
     29 H11        -20.4150    24.7160   -26.9800 ha         1 RKH       0.124000
     30 H12        -21.1660    27.8170   -30.0730 ha         1 RKH       0.122000
     31 H13        -19.7120    26.8020   -26.1490 ha         1 RKH       0.122000
@<TRIPOS>BOND
     1     1     4 1   
     2     1    19 1   
     3     1    20 1   
     4     1    21 1   
     5     2    16 1   
     6     2    22 1   
     7     2    23 1   
     8     3     4 1   
     9     3     9 1   
    10     4     6 2   
    11     5    16 ar  
    12     5    17 ar  
    13     6     8 1   
    14     6    24 1   
    15     7    17 1   
    16     7    25 1   
    17     7    26 1   
    18     8     9 ar  
    19     8    13 ar  
    20     9    10 ar  
    21    10    11 ar  
    22    10    27 1   
    23    11    12 ar  
    24    11    28 1   
    25    12    13 ar  
    26    12    14 1   
    27    13    29 1   
    28    14    15 ar  
    29    14    18 ar  
    30    15    16 ar  
    31    15    30 1   
    32    17    18 ar  
    33    18    31 1   
@<TRIPOS>SUBSTRUCTURE
     1 RKH         1 TEMP              0 ****  ****    0 ROOT
