@<TRIPOS>MOLECULE
RKH
   31    33     1     0     0
SMALL
No Charge or Current Charge


@<TRIPOS>ATOM
      1 C1         -24.6200    21.0130   -26.4540 c3         1 RKH      -0.030900
      2 N1         -19.2390    29.8180   -30.2680 nv         1 RKH      -1.054400
      3 O1         -24.6710    23.2550   -27.5550 os         1 RKH      -0.176200
      4 C2         -23.9430    22.2940   -26.8500 cc         1 RKH       0.032900
      5 N2         -18.4800    29.0910   -28.3570 nb         1 RKH      -0.812000
      6 C3         -22.6530    22.7360   -26.6400 cd         1 RKH      -0.235200
      7 N3         -17.5880    28.4840   -26.4610 nv         1 RKH      -1.054400
      8 C4         -22.5380    24.0300   -27.2280 ca         1 RKH      -0.113800
      9 C5         -23.7730    24.2840   -27.7590 ca         1 RKH       0.065100
     10 C6         -24.0320    25.4850   -28.4280 ca         1 RKH      -0.109000
     11 C7         -22.9820    26.4240   -28.5400 ca         1 RKH      -0.077000
     12 C8         -21.6870    26.1700   -27.9890 cp         1 RKH      -0.066000
     13 C9         -21.4730    24.9330   -27.3160 ca         1 RKH      -0.043000
     14 C10        -20.5830    27.1750   -28.1160 cp         1 RKH       0.081000
     15 C11        -20.4820    28.0510   -29.2200 ca         1 RKH      -0.276000
     16 C12        -19.4270    28.9630   -29.2670 ca         1 RKH       0.634400
     17 C13        -18.5750    28.2700   -27.3280 ca         1 RKH       0.634400
     18 C14        -19.5720    27.3130   -27.1400 ca         1 RKH      -0.276000
     19 H1         -25.4830    21.2130   -25.8080 hc         1 RKH       0.057033
     20 H2         -24.9750    20.4710   -27.3380 hc         1 RKH       0.057033
     21 H3         -23.9330    20.3570   -25.9070 hc         1 RKH       0.057033
     22 H4         -18.3180    30.2360   -30.2860 hn         1 RKH       0.468000
     23 H5         -19.6470    29.5820   -31.1650 hn         1 RKH       0.468000
     24 H6         -21.8730    22.1870   -26.1180 ha         1 RKH       0.212000
     25 H7         -17.0930    29.3550   -26.6050 hn         1 RKH       0.468000
     26 H8         -17.7440    28.2050   -25.4990 hn         1 RKH       0.468000
     27 H9         -25.0150    25.6870   -28.8470 ha         1 RKH       0.131000
     28 H10        -23.1800    27.3650   -29.0470 ha         1 RKH       0.121000
     29 H11        -20.5060    24.6800   -26.8890 ha         1 RKH       0.124000
     30 H12        -21.2010    28.0160   -30.0310 ha         1 RKH       0.122000
     31 H13        -19.5670    26.6970   -26.2470 ha         1 RKH       0.122000
@<TRIPOS>BOND
     1     1     4 1   
     2     1    19 1   
     3     1    20 1   
     4     1    21 1   
     5     2    16 1   
     6     2    22 1   
     7     2    23 1   
     8     3     4 1   
     9     3     9 1   
    10     4     6 2   
    11     5    16 ar  
    12     5    17 ar  
    13     6     8 1   
    14     6    24 1   
    15     7    17 1   
    16     7    25 1   
    17     7    26 1   
    18     8     9 ar  
    19     8    13 ar  
    20     9    10 ar  
    21    10    11 ar  
    22    10    27 1   
    23    11    12 ar  
    24    11    28 1   
    25    12    13 ar  
    26    12    14 1   
    27    13    29 1   
    28    14    15 ar  
    29    14    18 ar  
    30    15    16 ar  
    31    15    30 1   
    32    17    18 ar  
    33    18    31 1   
@<TRIPOS>SUBSTRUCTURE
     1 RKH         1 TEMP              0 ****  ****    0 ROOT
