@<TRIPOS>MOLECULE
RKI
   35    37     1     0     0
SMALL
No Charge or Current Charge


@<TRIPOS>ATOM
      1 C18        -40.0770   -38.9910    -4.0840 ca         1 RKI       0.124800
      2 C16        -41.0750   -38.7130    -2.0690 ca         1 RKI       0.115900
      3 C14        -41.6360   -37.1930    -3.7420 ca         1 RKI       0.117500
      4 C12        -42.4380   -35.9680    -4.1820 c          1 RKI       0.505600
      5 C10        -44.1040   -34.2420    -3.4260 c3         1 RKI       0.157300
      6 C20        -39.2380   -38.9700    -6.3030 cc         1 RKI      -0.173400
      7 C19        -39.2200   -39.5930    -5.0690 cd         1 RKI      -0.299800
      8 C02        -43.5260   -32.3650     1.9480 c          1 RKI       0.717000
      9 C05        -44.9980   -32.6310    -0.0560 ca         1 RKI       0.008700
     10 C06        -46.2430   -33.2340     0.2090 ca         1 RKI      -0.102000
     11 C07        -46.7910   -34.1570    -0.6970 ca         1 RKI      -0.123000
     12 C08        -46.1000   -34.4820    -1.8750 ca         1 RKI      -0.135000
     13 C09        -44.8560   -33.8860    -2.1540 ca         1 RKI      -0.134300
     14 C22        -40.7470   -37.9000    -4.5920 ca         1 RKI      -0.252000
     15 C23        -44.3100   -32.9630    -1.2400 ca         1 RKI      -0.088000
     16 N11        -43.2540   -35.4080    -3.2190 ns         1 RKI      -0.465900
     17 N15        -41.7860   -37.6270    -2.4590 nb         1 RKI      -0.181000
     18 N17        -40.2140   -39.4300    -2.8240 nb         1 RKI      -0.145000
     19 O01        -44.0640   -32.8140     2.9490 o          1 RKI      -0.726500
     20 O03        -42.3560   -32.5680     1.6610 o          1 RKI      -0.726500
     21 O13        -42.3870   -35.4860    -5.3080 o          1 RKI      -0.616100
     22 S21        -40.3480   -37.5680    -6.3080 ss         1 RKI       0.210400
     23 H161       -41.2110   -39.0410    -1.0400 h5         1 RKI       0.049100
     24 H101       -43.4790   -33.3950    -3.7420 h1         1 RKI       0.052700
     25 H102       -44.8170   -34.4590    -4.2330 h1         1 RKI       0.052700
     26 H201       -38.6940   -39.2160    -7.2090 h4         1 RKI       0.213000
     27 H191       -38.6070   -40.4670    -4.8590 ha         1 RKI       0.213000
     28 H042       -43.7930   -30.9270     0.3430 hc         1 RKI       0.035200
     29 H041       -45.2420   -31.1360     1.4350 hc         1 RKI       0.035200
     30 H061       -46.7840   -32.9890     1.1200 ha         1 RKI       0.112000
     31 H071       -47.7520   -34.6200    -0.4850 ha         1 RKI       0.092000
     32 H081       -46.5310   -35.1990    -2.5710 ha         1 RKI       0.086000
     33 H231       -43.3450   -32.5040    -1.4480 ha         1 RKI       0.118000
     34 H111       -43.2570   -35.8490    -2.3060 hn         1 RKI       0.340500
     35 C04        -44.4030   -31.6260     0.9260 c3         1 RKI      -0.188100
@<TRIPOS>BOND
     1     1     7 1   
     2     1    14 ar  
     3     1    18 ar  
     4     2    17 ar  
     5     2    18 ar  
     6     2    23 1   
     7     3     4 1   
     8     3    14 ar  
     9     3    17 ar  
    10     4    16 1   
    11     4    21 2   
    12     5    13 1   
    13     5    16 1   
    14     5    24 1   
    15     5    25 1   
    16     6     7 2   
    17     6    22 1   
    18     6    26 1   
    19     7    27 1   
    20     8    19 1   
    21     8    20 1   
    22     8    35 1   
    23     9    10 ar  
    24     9    15 ar  
    25     9    35 1   
    26    10    11 ar  
    27    10    30 1   
    28    11    12 ar  
    29    11    31 1   
    30    12    13 ar  
    31    12    32 1   
    32    13    15 ar  
    33    14    22 1   
    34    15    33 1   
    35    16    34 1   
    36    28    35 1   
    37    29    35 1   
@<TRIPOS>SUBSTRUCTURE
     1 RKI         1 TEMP              0 ****  ****    0 ROOT
