@<TRIPOS>MOLECULE
RKI
   35    37     1     0     0
SMALL
abcg2


@<TRIPOS>ATOM
      1 C18        -40.1630   -38.6610    -3.8520 ca         1 RKI       0.124800
      2 C16        -42.0900   -39.4100    -2.9300 ca         1 RKI       0.115900
      3 C14        -42.1050   -37.2550    -3.7090 ca         1 RKI       0.117500
      4 C12        -42.8350   -35.9570    -3.9370 c          1 RKI       0.505600
      5 C10        -44.9870   -34.7960    -3.5880 c3         1 RKI       0.157300
      6 C20        -38.4360   -37.5060    -4.8470 cc         1 RKI      -0.173400
      7 C19        -38.8050   -38.6900    -4.2960 cd         1 RKI      -0.299800
      8 C02        -42.5950   -32.5120     1.2810 c          1 RKI       0.717000
      9 C05        -44.5680   -32.7990    -0.3660 ca         1 RKI       0.008700
     10 C06        -45.7320   -33.1640     0.3160 ca         1 RKI      -0.102000
     11 C07        -46.6480   -34.0390    -0.2550 ca         1 RKI      -0.123000
     12 C08        -46.4160   -34.5630    -1.5240 ca         1 RKI      -0.135000
     13 C09        -45.2630   -34.2120    -2.2220 ca         1 RKI      -0.134300
     14 C22        -40.7800   -37.4070    -4.1000 ca         1 RKI      -0.252000
     15 C23        -44.3520   -33.3330    -1.6350 ca         1 RKI      -0.088000
     16 N11        -44.1030   -35.9530    -3.5180 ns         1 RKI      -0.465900
     17 N15        -42.7520   -38.2630    -3.1240 nb         1 RKI      -0.181000
     18 N17        -40.8320   -39.6650    -3.2620 nb         1 RKI      -0.145000
     19 O01        -42.0920   -31.7280     2.1260 o          1 RKI      -0.726500
     20 O03        -42.3500   -33.7370     1.1630 o          1 RKI      -0.726500
     21 O13        -42.2540   -35.0130    -4.4760 o          1 RKI      -0.616100
     22 S21        -39.6890   -36.3020    -4.8630 ss         1 RKI       0.210400
     23 H161       -42.6450   -40.2090    -2.4510 h5         1 RKI       0.049100
     24 H101       -44.5040   -34.0630    -4.2310 h1         1 RKI       0.052700
     25 H102       -45.9200   -35.1060    -4.0590 h1         1 RKI       0.052700
     26 H201       -37.4710   -37.2540    -5.2590 h4         1 RKI       0.213000
     27 H191       -38.1620   -39.5520    -4.2010 ha         1 RKI       0.213000
     28 H042       -42.9600   -31.3970    -0.5040 hc         1 RKI       0.035200
     29 H041       -44.1010   -31.0550     0.7840 hc         1 RKI       0.035200
     30 H061       -45.9220   -32.7540     1.3010 ha         1 RKI       0.112000
     31 H071       -47.5470   -34.3090     0.2840 ha         1 RKI       0.092000
     32 H081       -47.1330   -35.2390    -1.9760 ha         1 RKI       0.086000
     33 H231       -43.4570   -33.0550    -2.1810 ha         1 RKI       0.118000
     34 H111       -44.4310   -36.7950    -3.0650 hn         1 RKI       0.340500
     35 C04        -43.5810   -31.8630     0.2680 c3         1 RKI      -0.188100
@<TRIPOS>BOND
     1     1     7 1   
     2     1    14 ar  
     3     1    18 ar  
     4     2    17 ar  
     5     2    18 ar  
     6     2    23 1   
     7     3     4 1   
     8     3    14 ar  
     9     3    17 ar  
    10     4    16 1   
    11     4    21 2   
    12     5    13 1   
    13     5    16 1   
    14     5    24 1   
    15     5    25 1   
    16     6     7 2   
    17     6    22 1   
    18     6    26 1   
    19     7    27 1   
    20     8    19 1   
    21     8    20 1   
    22     8    35 1   
    23     9    10 ar  
    24     9    15 ar  
    25     9    35 1   
    26    10    11 ar  
    27    10    30 1   
    28    11    12 ar  
    29    11    31 1   
    30    12    13 ar  
    31    12    32 1   
    32    13    15 ar  
    33    14    22 1   
    34    15    33 1   
    35    16    34 1   
    36    28    35 1   
    37    29    35 1   
@<TRIPOS>SUBSTRUCTURE
     1 RKI         1 TEMP              0 ****  ****    0 ROOT
