@<TRIPOS>MOLECULE
RKJ
   40    43     1     0     0
SMALL
bcc


@<TRIPOS>ATOM
      1 N1          -0.2650    -0.9630     1.0820 n3         1 RKJ      -0.708600
      2 N3           3.8490    -0.3500    -0.6030 nc         1 RKJ      -0.371300
      3 C4          -0.8590    -0.2410    -1.0780 c5         1 RKJ      -0.062700
      4 C5          -2.3670    -0.0470    -1.2440 c5         1 RKJ       0.169800
      5 C6          -1.8900     0.8720     0.8130 c5         1 RKJ       0.183800
      6 C7          -0.5660     0.2770     0.3620 c5         1 RKJ       0.180200
      7 C8           0.6380     1.2410     0.4000 c6         1 RKJ       0.220400
      8 C10          1.7920    -0.9250    -0.0870 cc         1 RKJ       0.270000
      9 C1           0.2210    -0.8700     2.4400 c3         1 RKJ       0.161100
     10 C11          3.1820     0.7340    -0.3130 cd         1 RKJ       0.366600
     11 C12          3.8280     2.0710    -0.3690 c3         1 RKJ      -0.134400
     12 C14         -5.2530    -0.3110    -0.4400 c3         1 RKJ      -0.090100
     13 C2           0.5490    -1.7280     0.1540 c5         1 RKJ       0.145200
     14 C3          -0.3480    -1.6920    -1.0850 c5         1 RKJ      -0.059400
     15 C9           1.8400     0.4210     0.0280 cd         1 RKJ      -0.400900
     16 N2          -2.8740     0.0710     0.1120 n3         1 RKJ      -0.707600
     17 O1           0.4250     2.3070    -0.4970 oh         1 RKJ      -0.585800
     18 O2           2.9740    -1.4010    -0.4590 os         1 RKJ      -0.100100
     19 H2          -0.3290     0.3420    -1.8300 hc         1 RKJ       0.077700
     20 H3          -2.5610     0.8690    -1.8280 h1         1 RKJ       0.039200
     21 H4          -2.8380    -0.8740    -1.7790 h1         1 RKJ       0.039200
     22 H5          -2.0360     0.8160     1.8950 h1         1 RKJ       0.043200
     23 H6          -1.9440     1.9360     0.5310 h1         1 RKJ       0.043200
     24 H7           0.7520     1.6330     1.4210 h1         1 RKJ       0.041700
     25 H8          -4.2940     1.6040    -0.2180 h1         1 RKJ       0.026700
     26 H9          -4.4570     0.6940     1.2770 h1         1 RKJ       0.026700
     27 H10          1.2400    -0.4750     2.5450 h1         1 RKJ       0.035367
     28 H11         -0.4430    -0.2350     3.0270 h1         1 RKJ       0.035367
     29 H12          0.2070    -1.8610     2.8950 h1         1 RKJ       0.035367
     30 H13          3.3500     2.6970    -1.1240 hc         1 RKJ       0.055700
     31 H14          3.7330     2.5850     0.5880 hc         1 RKJ       0.055700
     32 H15          4.8850     1.9890    -0.6110 hc         1 RKJ       0.055700
     33 H16         -5.1760    -1.3310    -0.0620 hc         1 RKJ       0.037367
     34 H17         -6.2580     0.0530    -0.2260 hc         1 RKJ       0.037367
     35 H18         -5.1420    -0.3430    -1.5240 hc         1 RKJ       0.037367
     36 H19          0.7600    -2.7350     0.5200 h1         1 RKJ       0.096700
     37 H20         -1.1610    -2.4060    -0.9480 hc         1 RKJ       0.063700
     38 H21          0.1750    -1.9520    -2.0060 hc         1 RKJ       0.063700
     39 H23          0.8680     3.0890    -0.1570 ho         1 RKJ       0.405000
     40 C13         -4.2190     0.5900     0.2150 c3         1 RKJ       0.172800
@<TRIPOS>BOND
     1     1     6 1   
     2     1     9 1   
     3     1    13 1   
     4     2    10 2   
     5     2    18 1   
     6     3     4 1   
     7     3     6 1   
     8     3    14 1   
     9     3    19 1   
    10     4    16 1   
    11     4    20 1   
    12     4    21 1   
    13     5     6 1   
    14     5    16 1   
    15     5    22 1   
    16     5    23 1   
    17     6     7 1   
    18     7    15 1   
    19     7    17 1   
    20     7    24 1   
    21     8    13 1   
    22     8    15 2   
    23     8    18 1   
    24     9    27 1   
    25     9    28 1   
    26     9    29 1   
    27    10    11 1   
    28    10    15 1   
    29    11    30 1   
    30    11    31 1   
    31    11    32 1   
    32    12    33 1   
    33    12    34 1   
    34    12    35 1   
    35    12    40 1   
    36    13    14 1   
    37    13    36 1   
    38    14    37 1   
    39    14    38 1   
    40    16    40 1   
    41    17    39 1   
    42    25    40 1   
    43    26    40 1   
@<TRIPOS>SUBSTRUCTURE
     1 RKJ         1 TEMP              0 ****  ****    0 ROOT
