@<TRIPOS>MOLECULE
RKJ
   40    43     1     0     0
SMALL
No Charge or Current Charge


@<TRIPOS>ATOM
      1 N1          -0.3200    -0.9220     0.9930 n3         1 RKJ      -0.708600
      2 N3           3.9960    -0.3670    -0.4930 nc         1 RKJ      -0.371300
      3 C4          -0.8900    -0.1300    -1.1850 c5         1 RKJ      -0.062700
      4 C5          -2.4520    -0.0450    -1.2920 c5         1 RKJ       0.169800
      5 C6          -1.9050     1.0310     0.7170 c5         1 RKJ       0.183800
      6 C7          -0.5510     0.3900     0.2580 c5         1 RKJ       0.180200
      7 C8           0.7460     1.3030     0.3250 c6         1 RKJ       0.243600
      8 C10          1.8120    -0.9070    -0.1540 cc         1 RKJ       0.160300
      9 C1           0.1090    -0.8670     2.4120 c3         1 RKJ       0.161100
     10 C11          3.2880     0.7250    -0.2350 cd         1 RKJ       0.301300
     11 C12          3.9500     2.0740    -0.1700 c3         1 RKJ      -0.134400
     12 C14         -5.3410    -0.5140    -0.2340 c3         1 RKJ      -0.090100
     13 C2           0.5270    -1.7090     0.0470 c5         1 RKJ       0.145200
     14 C3          -0.4170    -1.6350    -1.1880 c5         1 RKJ      -0.059400
     15 C9           1.9280     0.4350    -0.0320 cd         1 RKJ      -0.270300
     16 N2          -2.9160     0.1170     0.1120 n3         1 RKJ      -0.707600
     17 O1           0.6590     2.4280    -0.5580 oh         1 RKJ      -0.648000
     18 O2           3.0330    -1.4550    -0.4420 os         1 RKJ      -0.055700
     19 H2          -0.4040     0.4500    -1.9770 hc         1 RKJ       0.077700
     20 H3          -2.7340     0.8350    -1.8880 h1         1 RKJ       0.039200
     21 H4          -2.8930    -0.9230    -1.7830 h1         1 RKJ       0.039200
     22 H5          -1.9910     1.0870     1.8100 h1         1 RKJ       0.043200
     23 H6          -2.0080     2.0500     0.3200 h1         1 RKJ       0.043200
     24 H7           0.8670     1.6590     1.3590 h1         1 RKJ       0.041700
     25 H8          -4.5120     1.4790    -0.1920 h1         1 RKJ       0.026700
     26 H9          -4.5220     0.6550     1.3710 h1         1 RKJ       0.026700
     27 H10          1.0990    -0.4040     2.5180 h1         1 RKJ       0.035367
     28 H11         -0.6060    -0.2920     3.0140 h1         1 RKJ       0.035367
     29 H12          0.1640    -1.8800     2.8320 h1         1 RKJ       0.035367
     30 H13          3.7530     2.6490    -1.0820 hc         1 RKJ       0.055700
     31 H14          3.5810     2.6500     0.6860 hc         1 RKJ       0.055700
     32 H15          5.0380     1.9810    -0.0620 hc         1 RKJ       0.055700
     33 H16         -5.1760    -1.4950     0.2270 hc         1 RKJ       0.037367
     34 H17         -6.3630    -0.1930     0.0000 hc         1 RKJ       0.037367
     35 H18         -5.2610    -0.6210    -1.3220 hc         1 RKJ       0.037367
     36 H19          0.7310    -2.7390     0.3770 h1         1 RKJ       0.096700
     37 H20         -1.2520    -2.3350    -1.0660 hc         1 RKJ       0.063700
     38 H21          0.0960    -1.9080    -2.1160 hc         1 RKJ       0.063700
     39 H23          1.4520     2.9770    -0.3900 ho         1 RKJ       0.444000
     40 C13         -4.3260     0.5150     0.2990 c3         1 RKJ       0.172800
@<TRIPOS>BOND
     1     1     6 1   
     2     1     9 1   
     3     1    13 1   
     4     2    10 2   
     5     2    18 1   
     6     3     4 1   
     7     3     6 1   
     8     3    14 1   
     9     3    19 1   
    10     4    16 1   
    11     4    20 1   
    12     4    21 1   
    13     5     6 1   
    14     5    16 1   
    15     5    22 1   
    16     5    23 1   
    17     6     7 1   
    18     7    15 1   
    19     7    17 1   
    20     7    24 1   
    21     8    13 1   
    22     8    15 2   
    23     8    18 1   
    24     9    27 1   
    25     9    28 1   
    26     9    29 1   
    27    10    11 1   
    28    10    15 1   
    29    11    30 1   
    30    11    31 1   
    31    11    32 1   
    32    12    33 1   
    33    12    34 1   
    34    12    35 1   
    35    12    40 1   
    36    13    14 1   
    37    13    36 1   
    38    14    37 1   
    39    14    38 1   
    40    16    40 1   
    41    17    39 1   
    42    25    40 1   
    43    26    40 1   
@<TRIPOS>SUBSTRUCTURE
     1 RKJ         1 TEMP              0 ****  ****    0 ROOT
