@<TRIPOS>MOLECULE
RKK
   51    53     1     0     0
SMALL
bcc


@<TRIPOS>ATOM
      1 C1          -4.1810     1.4510    26.2320 c3         1 RKK      -0.093100
      2 N1          -6.4430    -0.4450    29.5550 na         1 RKK      -0.255000
      3 C2          -4.0400    -0.0210    26.6010 c3         1 RKK      -0.074400
      4 N2          -8.4160    -0.6210    30.5900 nc         1 RKK      -0.573100
      5 C3          -5.2100    -0.5750    27.4100 c3         1 RKK      -0.095400
      6 N3          -5.4950    -2.5730    30.1530 nb         1 RKK      -0.663000
      7 C4          -5.3400     0.0860    28.7770 c3         1 RKK       0.056300
      8 N4          -1.9760    -6.0020    28.7830 nv         1 RKK      -0.946000
      9 C5          -7.6440     0.1390    29.8530 cd         1 RKK       0.435800
     10 N5          -2.6680    -6.6230    30.8780 nb         1 RKK      -0.809000
     11 C6          -8.0340     1.4930    29.3750 c3         1 RKK      -0.097700
     12 N6          -3.2600    -7.3240    32.9800 nv         1 RKK      -0.946000
     13 C7          -8.5010     1.5040    27.9160 c3         1 RKK      -0.075400
     14 C8          -8.8280     2.9050    27.4080 c3         1 RKK      -0.074400
     15 C9          -9.9900     3.5740    28.1300 c3         1 RKK      -0.091100
     16 C10         -7.6980    -1.7670    30.8000 ca         1 RKK      -0.025900
     17 C11         -7.9590    -2.9300    31.5100 ca         1 RKK      -0.040000
     18 C12         -6.9590    -3.8900    31.5270 ca         1 RKK      -0.253300
     19 C13         -5.7470    -3.6810    30.8500 cp         1 RKK       0.473800
     20 C14         -6.4540    -1.6750    30.1560 ca         1 RKK       0.401800
     21 C15         -4.6810    -4.7080    30.8650 cp         1 RKK      -0.031500
     22 C16         -3.8470    -4.8550    29.7640 ca         1 RKK      -0.341800
     23 C17         -2.8510    -5.8360    29.8190 ca         1 RKK       0.695700
     24 C18         -3.4660    -6.4710    31.9330 ca         1 RKK       0.695700
     25 C19         -4.4960    -5.5230    31.9750 ca         1 RKK      -0.341800
     26 H1          -3.3750     1.7670    25.5700 hc         1 RKK       0.032367
     27 H2          -5.1260     1.6370    25.7180 hc         1 RKK       0.032367
     28 H3          -4.1510     2.1000    27.1080 hc         1 RKK       0.032367
     29 H4          -3.9480    -0.6130    25.6880 hc         1 RKK       0.043700
     30 H5          -3.1090    -0.1760    27.1550 hc         1 RKK       0.043700
     31 H6          -6.1390    -0.4410    26.8490 hc         1 RKK       0.055200
     32 H7          -5.0770    -1.6500    27.5470 hc         1 RKK       0.055200
     33 H8          -4.4230    -0.0580    29.3520 h1         1 RKK       0.062200
     34 H9          -5.4870     1.1610    28.6830 h1         1 RKK       0.062200
     35 H10         -1.4860    -6.8800    28.7490 hn         1 RKK       0.413550
     36 H11         -2.2540    -5.6510    27.8820 hn         1 RKK       0.413550
     37 H12         -7.2040     2.1940    29.4990 hc         1 RKK       0.066200
     38 H13         -8.8350     1.8390    30.0280 hc         1 RKK       0.066200
     39 H14         -2.3550    -7.7640    33.0230 hn         1 RKK       0.413550
     40 H15         -3.6310    -7.0560    33.8760 hn         1 RKK       0.413550
     41 H16         -9.3790     0.8590    27.8180 hc         1 RKK       0.047200
     42 H17         -7.7270     1.0710    27.2780 hc         1 RKK       0.047200
     43 H18         -9.0590     2.8380    26.3420 hc         1 RKK       0.038200
     44 H19         -7.9340     3.5310    27.4850 hc         1 RKK       0.038200
     45 H20        -10.2320     4.5340    27.6740 hc         1 RKK       0.034033
     46 H21        -10.8880     2.9540    28.0890 hc         1 RKK       0.034033
     47 H22         -9.7680     3.7630    29.1810 hc         1 RKK       0.034033
     48 H23         -8.8970    -3.0880    32.0260 ha         1 RKK       0.151000
     49 H24         -7.1230    -4.8190    32.0540 ha         1 RKK       0.146000
     50 H25         -3.9670    -4.2390    28.8840 ha         1 RKK       0.146000
     51 H26         -5.1020    -5.4210    32.8650 ha         1 RKK       0.146000
@<TRIPOS>BOND
     1     1     3 1   
     2     1    26 1   
     3     1    27 1   
     4     1    28 1   
     5     2     7 1   
     6     2     9 1   
     7     2    20 1   
     8     3     5 1   
     9     3    29 1   
    10     3    30 1   
    11     4     9 2   
    12     4    16 1   
    13     5     7 1   
    14     5    31 1   
    15     5    32 1   
    16     6    19 ar  
    17     6    20 ar  
    18     7    33 1   
    19     7    34 1   
    20     8    23 1   
    21     8    35 1   
    22     8    36 1   
    23     9    11 1   
    24    10    23 ar  
    25    10    24 ar  
    26    11    13 1   
    27    11    37 1   
    28    11    38 1   
    29    12    24 1   
    30    12    39 1   
    31    12    40 1   
    32    13    14 1   
    33    13    41 1   
    34    13    42 1   
    35    14    15 1   
    36    14    43 1   
    37    14    44 1   
    38    15    45 1   
    39    15    46 1   
    40    15    47 1   
    41    16    17 ar  
    42    16    20 ar  
    43    17    18 ar  
    44    17    48 1   
    45    18    19 ar  
    46    18    49 1   
    47    19    21 1   
    48    21    22 ar  
    49    21    25 ar  
    50    22    23 ar  
    51    22    50 1   
    52    24    25 ar  
    53    25    51 1   
@<TRIPOS>SUBSTRUCTURE
     1 RKK         1 TEMP              0 ****  ****    0 ROOT
