@<TRIPOS>MOLECULE
RKK
   51    53     1     0     0
SMALL
No Charge or Current Charge


@<TRIPOS>ATOM
      1 C1          -4.3340     1.4220    25.9360 c3         1 RKK      -0.093100
      2 N1          -6.3790    -0.3860    29.5420 na         1 RKK      -0.284300
      3 C2          -4.1180    -0.0400    26.3800 c3         1 RKK      -0.074400
      4 N2          -8.3870    -0.5380    30.6690 nc         1 RKK      -0.573100
      5 C3          -5.2210    -0.5860    27.3160 c3         1 RKK      -0.095400
      6 N3          -5.4540    -2.5630    30.2260 nb         1 RKK      -0.663000
      7 C4          -5.2770     0.1060    28.6970 c3         1 RKK       0.085600
      8 N4          -1.5570    -5.8530    29.2890 nv         1 RKK      -1.056400
      9 C5          -7.6060     0.2130    29.8730 cd         1 RKK       0.435800
     10 N5          -2.5990    -6.7700    30.9720 nb         1 RKK      -0.809000
     11 C6          -8.0410     1.5830    29.4130 c3         1 RKK      -0.097700
     12 N6          -3.5060    -7.8100    32.6590 nv         1 RKK      -1.056400
     13 C7          -8.5630     1.6010    27.9560 c3         1 RKK      -0.075400
     14 C8          -8.9240     3.0080    27.4230 c3         1 RKK      -0.074400
     15 C9         -10.1080     3.6800    28.1490 c3         1 RKK      -0.091100
     16 C10         -7.5970    -1.6620    30.8490 ca         1 RKK       0.039400
     17 C11         -7.9090    -2.7970    31.6060 ca         1 RKK      -0.022000
     18 C12         -6.9460    -3.8230    31.6530 ca         1 RKK      -0.170000
     19 C13         -5.7130    -3.6810    30.9530 cp         1 RKK       0.408500
     20 C14         -6.3880    -1.5910    30.1880 ca         1 RKK       0.336500
     21 C15         -4.6420    -4.7500    30.9640 cp         1 RKK      -0.031500
     22 C16         -3.5560    -4.7530    30.0480 ca         1 RKK      -0.258500
     23 C17         -2.5980    -5.7670    30.1140 ca         1 RKK       0.630400
     24 C18         -3.6030    -6.7750    31.8270 ca         1 RKK       0.630400
     25 C19         -4.6290    -5.8290    31.8880 ca         1 RKK      -0.258500
     26 H1          -3.5670     1.7150    25.2090 hc         1 RKK       0.032367
     27 H2          -5.3160     1.5430    25.4630 hc         1 RKK       0.032367
     28 H3          -4.2710     2.1090    26.7870 hc         1 RKK       0.032367
     29 H4          -4.0750    -0.6730    25.4850 hc         1 RKK       0.043700
     30 H5          -3.1420    -0.1300    26.8740 hc         1 RKK       0.043700
     31 H6          -6.1930    -0.4940    26.8170 hc         1 RKK       0.055200
     32 H7          -5.0510    -1.6590    27.4660 hc         1 RKK       0.055200
     33 H8          -4.3290    -0.0600    29.2240 h1         1 RKK       0.062200
     34 H9          -5.3940     1.1880    28.5620 h1         1 RKK       0.062200
     35 H10         -1.0970    -6.7550    29.2980 hn         1 RKK       0.468750
     36 H11         -1.6340    -5.3920    28.3910 hn         1 RKK       0.468750
     37 H12         -7.2050     2.2850    29.5100 hc         1 RKK       0.066200
     38 H13         -8.8250     1.9550    30.0830 hc         1 RKK       0.066200
     39 H14         -2.6010    -8.2620    32.6510 hn         1 RKK       0.468750
     40 H15         -3.9660    -7.7320    33.5580 hn         1 RKK       0.468750
     41 H16         -9.4400     0.9460    27.8760 hc         1 RKK       0.047200
     42 H17         -7.7960     1.1760    27.2980 hc         1 RKK       0.047200
     43 H18         -9.1720     2.9230    26.3580 hc         1 RKK       0.038200
     44 H19         -8.0430     3.6590    27.4870 hc         1 RKK       0.038200
     45 H20        -10.3600     4.6300    27.6630 hc         1 RKK       0.034033
     46 H21        -10.9960     3.0370    28.1220 hc         1 RKK       0.034033
     47 H22         -9.8620     3.8930    29.1960 hc         1 RKK       0.034033
     48 H23         -8.8570    -2.8810    32.1330 ha         1 RKK       0.133000
     49 H24         -7.1620    -4.7220    32.2190 ha         1 RKK       0.128000
     50 H25         -3.4590    -3.9780    29.2940 ha         1 RKK       0.128000
     51 H26         -5.3940    -5.9320    32.6490 ha         1 RKK       0.128000
@<TRIPOS>BOND
     1     1     3 1   
     2     1    26 1   
     3     1    27 1   
     4     1    28 1   
     5     2     7 1   
     6     2     9 1   
     7     2    20 1   
     8     3     5 1   
     9     3    29 1   
    10     3    30 1   
    11     4     9 2   
    12     4    16 1   
    13     5     7 1   
    14     5    31 1   
    15     5    32 1   
    16     6    19 ar  
    17     6    20 ar  
    18     7    33 1   
    19     7    34 1   
    20     8    23 1   
    21     8    35 1   
    22     8    36 1   
    23     9    11 1   
    24    10    23 ar  
    25    10    24 ar  
    26    11    13 1   
    27    11    37 1   
    28    11    38 1   
    29    12    24 1   
    30    12    39 1   
    31    12    40 1   
    32    13    14 1   
    33    13    41 1   
    34    13    42 1   
    35    14    15 1   
    36    14    43 1   
    37    14    44 1   
    38    15    45 1   
    39    15    46 1   
    40    15    47 1   
    41    16    17 ar  
    42    16    20 ar  
    43    17    18 ar  
    44    17    48 1   
    45    18    19 ar  
    46    18    49 1   
    47    19    21 1   
    48    21    22 ar  
    49    21    25 ar  
    50    22    23 ar  
    51    22    50 1   
    52    24    25 ar  
    53    25    51 1   
@<TRIPOS>SUBSTRUCTURE
     1 RKK         1 TEMP              0 ****  ****    0 ROOT
