@<TRIPOS>MOLECULE
RKN
   31    32     1     0     0
SMALL
abcg2


@<TRIPOS>ATOM
      1 C1           3.7970     0.3480     0.5920 c3         1 RKN       0.161900
      2 C2           2.3080     0.3510     0.4380 ca         1 RKN      -0.193300
      3 C3           1.6350     1.5320     0.1460 ca         1 RKN      -0.082000
      4 C4           0.2610     1.5240    -0.0180 ca         1 RKN      -0.092000
      5 C5          -0.4840     0.3510     0.1000 cp         1 RKN       0.049000
      6 C6           0.2110    -0.8210     0.4010 ca         1 RKN       0.121000
      7 C10         -4.0790     1.3690     0.5480 ca         1 RKN      -0.105000
      8 C11         -4.7150     0.6030    -0.4180 ca         1 RKN      -0.079000
      9 C13         -2.5980    -0.3590    -1.0420 ca         1 RKN      -0.081000
     10 CL          -0.6380    -2.3130     0.6310 cl         1 RKN      -0.144000
     11 C7           1.5870    -0.8290     0.5680 ca         1 RKN      -0.077000
     12 N            4.4650     0.1400    -0.7270 ny         1 RKN      -0.819000
     13 C            5.9430     0.2120    -0.6640 c3         1 RKN       0.073900
     14 C8          -1.9520     0.4060    -0.0720 cp         1 RKN      -0.087000
     15 C12         -3.9700    -0.2580    -1.2150 ca         1 RKN      -0.105000
     16 C9          -2.7040     1.2730     0.7180 ca         1 RKN      -0.081000
     17 H1           4.1610     1.2970     0.9810 hx         1 RKN       0.103200
     18 H2           4.1410    -0.4520     1.2450 hx         1 RKN       0.103200
     19 H3           2.1820     2.4620     0.0510 ha         1 RKN       0.121000
     20 H4          -0.2530     2.4470    -0.2540 ha         1 RKN       0.147000
     21 H6          -5.7860     0.6790    -0.5550 ha         1 RKN       0.128000
     22 H7          -2.0250    -1.0220    -1.6770 ha         1 RKN       0.116000
     23 H8           2.0940    -1.7520     0.8170 ha         1 RKN       0.132000
     24 H9           4.1880    -0.7660    -1.1090 hn         1 RKN       0.505000
     25 H10          4.1240     0.8320    -1.3960 hn         1 RKN       0.505000
     26 H11          6.3000    -0.5440     0.0280 hx         1 RKN       0.102700
     27 H12          6.3410     0.0290    -1.6560 hx         1 RKN       0.102700
     28 H13          6.2280     1.2010    -0.3220 hx         1 RKN       0.102700
     29 H14         -4.4600    -0.8490    -1.9780 ha         1 RKN       0.127500
     30 H15         -2.2130     1.8700     1.4780 ha         1 RKN       0.116000
     31 H5          -4.6520     2.0420     1.1720 ha         1 RKN       0.127500
@<TRIPOS>BOND
     1     1     2 1   
     2     1    12 1   
     3     1    17 1   
     4     1    18 1   
     5     2     3 ar  
     6     2    11 ar  
     7     3     4 ar  
     8     3    19 1   
     9     4     5 ar  
    10     4    20 1   
    11     5     6 ar  
    12     5    14 1   
    13     6    10 1   
    14     6    11 ar  
    15     7     8 ar  
    16     7    16 ar  
    17     7    31 1   
    18     8    15 ar  
    19     8    21 1   
    20     9    14 ar  
    21     9    15 ar  
    22     9    22 1   
    23    11    23 1   
    24    12    13 1   
    25    12    24 1   
    26    12    25 1   
    27    13    26 1   
    28    13    27 1   
    29    13    28 1   
    30    14    16 ar  
    31    15    29 1   
    32    16    30 1   
@<TRIPOS>SUBSTRUCTURE
     1 RKN         1 TEMP              0 ****  ****    0 ROOT
