@<TRIPOS>MOLECULE
RKN
   31    32     1     0     0
SMALL
No Charge or Current Charge


@<TRIPOS>ATOM
      1 C1           3.8420     0.3690     0.6640 c3         1 RKN       0.161900
      2 C2           2.3400     0.3750     0.4810 ca         1 RKN      -0.193300
      3 C3           1.6630     1.5780     0.2230 ca         1 RKN      -0.082000
      4 C4           0.2680     1.5790     0.0510 ca         1 RKN      -0.092000
      5 C5          -0.4830     0.3810     0.1260 cp         1 RKN       0.049000
      6 C6           0.2150    -0.8290     0.3980 ca         1 RKN       0.121000
      7 C10         -4.1510     1.3940     0.4990 ca         1 RKN      -0.105000
      8 C11         -4.7740     0.5660    -0.4510 ca         1 RKN      -0.079000
      9 C13         -2.6110    -0.3880    -1.0300 ca         1 RKN      -0.081000
     10 Cl          -0.6270    -2.3700     0.5790 cl         1 RKN      -0.144000
     11 C7           1.6110    -0.8250     0.5710 ca         1 RKN      -0.077000
     12 N            4.4740     0.1750    -0.6980 ny         1 RKN      -0.819000
     13 C            6.0090     0.1440    -0.7550 c3         1 RKN       0.073900
     14 C8          -1.9650     0.4300    -0.0700 cp         1 RKN      -0.087000
     15 C12         -4.0020    -0.3230    -1.2170 ca         1 RKN      -0.105000
     16 C9          -2.7590     1.3280     0.6840 ca         1 RKN      -0.081000
     17 H1           4.1870     1.3150     1.0930 hx         1 RKN       0.103200
     18 H2           4.1540    -0.4420     1.3280 hx         1 RKN       0.103200
     19 H3           2.2130     2.5150     0.1550 ha         1 RKN       0.121000
     20 H4          -0.2410     2.5170    -0.1550 ha         1 RKN       0.147000
     21 H6          -5.8510     0.6170    -0.5950 ha         1 RKN       0.128000
     22 H7          -2.0250    -1.0710    -1.6420 ha         1 RKN       0.116000
     23 H8           2.1230    -1.7610     0.7830 ha         1 RKN       0.132000
     24 H9           4.0890    -0.6930    -1.1260 hn         1 RKN       0.505000
     25 H10          4.1140     0.9130    -1.3410 hn         1 RKN       0.505000
     26 H11          6.3850    -0.6770    -0.1390 hx         1 RKN       0.102700
     27 H12          6.3440     0.0000    -1.7870 hx         1 RKN       0.102700
     28 H13          6.4120     1.0870    -0.3760 hx         1 RKN       0.102700
     29 H14         -4.4820    -0.9590    -1.9580 ha         1 RKN       0.127500
     30 H15         -2.2900     1.9730     1.4240 ha         1 RKN       0.116000
     31 H5          -4.7460     2.0860     1.0910 ha         1 RKN       0.127500
@<TRIPOS>BOND
     1     1     2 1   
     2     1    12 1   
     3     1    17 1   
     4     1    18 1   
     5     2     3 ar  
     6     2    11 ar  
     7     3     4 ar  
     8     3    19 1   
     9     4     5 ar  
    10     4    20 1   
    11     5     6 ar  
    12     5    14 1   
    13     6    10 1   
    14     6    11 ar  
    15     7     8 ar  
    16     7    16 ar  
    17     7    31 1   
    18     8    15 ar  
    19     8    21 1   
    20     9    14 ar  
    21     9    15 ar  
    22     9    22 1   
    23    11    23 1   
    24    12    13 1   
    25    12    24 1   
    26    12    25 1   
    27    13    26 1   
    28    13    27 1   
    29    13    28 1   
    30    14    16 ar  
    31    15    29 1   
    32    16    30 1   
@<TRIPOS>SUBSTRUCTURE
     1 RKN         1 TEMP              0 ****  ****    0 ROOT
