@<TRIPOS>MOLECULE
RKO
   32    34     1     0     0
SMALL
abcg2


@<TRIPOS>ATOM
      1 C1         -64.1070    22.5070    -4.1920 c          1 RKO       0.630100
      2 C10        -63.7830    24.9560     0.2380 ca         1 RKO      -0.067200
      3 C11        -63.3620    25.7990     1.2580 ca         1 RKO      -0.115000
      4 C12        -63.3240    27.1600     0.9710 ca         1 RKO      -0.092000
      5 C13        -63.6970    27.6530    -0.2890 ca         1 RKO      -0.131000
      6 C14        -64.1180    26.8040    -1.3050 ca         1 RKO      -0.050000
      7 C2         -63.8890    24.0660    -6.1230 ca         1 RKO       0.482900
      8 C3         -64.1200    25.6100    -7.8070 ca         1 RKO       0.384900
      9 C4         -62.7620    25.5600    -8.0890 ca         1 RKO       0.028000
     10 C5         -61.9470    24.7150    -7.3490 ca         1 RKO      -0.042000
     11 C6         -62.5130    23.9490    -6.3450 ca         1 RKO      -0.167000
     12 C7         -65.2030    21.9370    -3.2960 c3         1 RKO      -0.037400
     13 C8         -64.3810    23.3010    -1.1050 cc         1 RKO       0.428700
     14 C9         -64.1600    25.4370    -1.0350 ca         1 RKO       0.078400
     15 N1         -64.5870    23.3630    -5.1380 ns         1 RKO      -0.308900
     16 N2         -64.6680    24.8780    -6.8420 nb         1 RKO      -0.725000
     17 N3         -64.5290    24.3720    -1.8510 nd         1 RKO      -0.597100
     18 N4         -63.9370    23.5840     0.1590 na         1 RKO      -0.309600
     19 O1         -62.9370    22.1810    -4.0880 o          1 RKO      -0.561100
     20 S1         -64.6710    21.6480    -1.5940 ss         1 RKO      -0.181200
     21 CL1        -62.1020    26.5530    -9.3610 cl         1 RKO      -0.194000
     22 H8         -63.0000    27.8530     1.7370 ha         1 RKO       0.114000
     23 H9         -63.6530    28.7200    -0.4710 ha         1 RKO       0.115000
     24 H10        -64.4040    27.1850    -2.2770 ha         1 RKO       0.130000
     25 H2         -64.7780    26.2590    -8.3730 h4         1 RKO       0.035100
     26 H3         -60.8860    24.6560    -7.5520 ha         1 RKO       0.136000
     27 H4         -61.9160    23.2830    -5.7470 ha         1 RKO       0.163000
     28 H5         -66.0970    22.5570    -3.2980 h1         1 RKO       0.098700
     29 H6         -65.4680    20.9450    -3.6700 h1         1 RKO       0.098700
     30 H1         -65.5710    23.5900    -5.1090 hn         1 RKO       0.172000
     31 H11        -63.7570    22.9160     0.8920 hn         1 RKO       0.365000
     32 H7         -63.0750    25.4170     2.2290 ha         1 RKO       0.118000
@<TRIPOS>BOND
     1     1    12 1   
     2     1    15 1   
     3     1    19 2   
     4     2     3 ar  
     5     2    14 ar  
     6     2    18 1   
     7     3     4 ar  
     8     3    32 1   
     9     4     5 ar  
    10     4    22 1   
    11     5     6 ar  
    12     5    23 1   
    13     6    14 ar  
    14     6    24 1   
    15     7    11 ar  
    16     7    15 1   
    17     7    16 ar  
    18     8     9 ar  
    19     8    16 ar  
    20     8    25 1   
    21     9    10 ar  
    22     9    21 1   
    23    10    11 ar  
    24    10    26 1   
    25    11    27 1   
    26    12    20 1   
    27    12    28 1   
    28    12    29 1   
    29    13    17 2   
    30    13    18 1   
    31    13    20 1   
    32    14    17 1   
    33    15    30 1   
    34    18    31 1   
@<TRIPOS>SUBSTRUCTURE
     1 RKO         1 TEMP              0 ****  ****    0 ROOT
