@<TRIPOS>MOLECULE
RKO
   32    34     1     0     0
SMALL
No Charge or Current Charge


@<TRIPOS>ATOM
      1 C1         -64.2460    22.3440    -4.2350 c          1 RKO       0.630100
      2 C10        -63.7200    24.9410     0.1260 ca         1 RKO      -0.067200
      3 C11        -63.1970    25.7820     1.1160 ca         1 RKO      -0.115000
      4 C12        -63.1520    27.1650     0.8370 ca         1 RKO      -0.092000
      5 C13        -63.6230    27.6590    -0.4040 ca         1 RKO      -0.131000
      6 C14        -64.1440    26.7760    -1.3770 ca         1 RKO      -0.050000
      7 C2         -63.9020    24.0750    -6.0340 ca         1 RKO       0.482900
      8 C3         -64.1220    25.4260    -7.8980 ca         1 RKO       0.384900
      9 C4         -62.7280    25.6270    -7.9810 ca         1 RKO       0.028000
     10 C5         -61.8980    25.0160    -7.0270 ca         1 RKO      -0.042000
     11 C6         -62.5000    24.2240    -6.0320 ca         1 RKO      -0.167000
     12 C7         -65.3650    21.8120    -3.3280 c3         1 RKO      -0.037400
     13 C8         -64.4380    23.2920    -1.1110 cc         1 RKO       0.428700
     14 C9         -64.1800    25.4050    -1.0810 ca         1 RKO       0.078400
     15 N1         -64.6410    23.3300    -5.1110 ns         1 RKO      -0.308900
     16 N2         -64.7080    24.6630    -6.9400 nb         1 RKO      -0.725000
     17 N3         -64.6480    24.3670    -1.8870 nd         1 RKO      -0.597100
     18 N4         -63.8820    23.5890     0.1210 na         1 RKO      -0.309600
     19 O1         -63.1030    21.9070    -4.1870 o          1 RKO      -0.561100
     20 S1         -64.8250    21.6360    -1.5570 ss         1 RKO      -0.181200
     21 Cl1        -62.0310    26.6320    -9.2500 cl         1 RKO      -0.194000
     22 H8         -62.7530    27.8540     1.5790 ha         1 RKO       0.114000
     23 H9         -63.5850    28.7260    -0.6110 ha         1 RKO       0.115000
     24 H10        -64.5080    27.1460    -2.3320 ha         1 RKO       0.130000
     25 H2         -64.7900    25.8910    -8.6220 h4         1 RKO       0.035100
     26 H3         -60.8200    25.1550    -7.0560 ha         1 RKO       0.136000
     27 H4         -61.8840    23.7530    -5.2740 ha         1 RKO       0.163000
     28 H5         -66.2190    22.4970    -3.3740 h1         1 RKO       0.098700
     29 H6         -65.6800    20.8380    -3.7190 h1         1 RKO       0.098700
     30 H1         -65.6210    23.5700    -5.0880 hn         1 RKO       0.172000
     31 H11        -63.6500    22.9300     0.8520 hn         1 RKO       0.365000
     32 H7         -62.8390    25.3870     2.0640 ha         1 RKO       0.118000
@<TRIPOS>BOND
     1     1    12 1   
     2     1    15 1   
     3     1    19 2   
     4     2     3 ar  
     5     2    14 ar  
     6     2    18 1   
     7     3     4 ar  
     8     3    32 1   
     9     4     5 ar  
    10     4    22 1   
    11     5     6 ar  
    12     5    23 1   
    13     6    14 ar  
    14     6    24 1   
    15     7    11 ar  
    16     7    15 1   
    17     7    16 ar  
    18     8     9 ar  
    19     8    16 ar  
    20     8    25 1   
    21     9    10 ar  
    22     9    21 1   
    23    10    11 ar  
    24    10    26 1   
    25    11    27 1   
    26    12    20 1   
    27    12    28 1   
    28    12    29 1   
    29    13    17 2   
    30    13    18 1   
    31    13    20 1   
    32    14    17 1   
    33    15    30 1   
    34    18    31 1   
@<TRIPOS>SUBSTRUCTURE
     1 RKO         1 TEMP              0 ****  ****    0 ROOT
