@<TRIPOS>MOLECULE
RKQ
   47    50     1     0     0
SMALL
No Charge or Current Charge


@<TRIPOS>ATOM
      1 C1          44.9690     3.2950    18.1410 c3         1 RKQ      -0.116400
      2 N1          44.5530     5.6170    17.3560 nc         1 RKQ      -0.568100
      3 O1          44.2610     0.9100    13.7290 os         1 RKQ      -0.344100
      4 C2          44.4720     4.2950    17.1360 cd         1 RKQ       0.438800
      5 N2          43.0250     5.3920    14.1120 nb         1 RKQ      -0.671000
      6 C3          43.9900     6.1230    16.1940 ca         1 RKQ       0.041400
      7 N3          43.8910     3.9490    15.9080 na         1 RKQ      -0.292300
      8 C4          43.8110     7.4710    15.8610 ca         1 RKQ      -0.019000
      9 N4          41.5000     5.4040     9.1350 nv         1 RKQ      -1.057400
     10 C5          43.2160     7.7510    14.6160 ca         1 RKQ      -0.169000
     11 N5          40.9670     7.3950     9.8490 nb         1 RKQ      -0.808000
     12 C6          42.8250     6.6870    13.7540 cp         1 RKQ       0.413500
     13 N6          40.3550     9.4130    10.4010 nv         1 RKQ      -1.057400
     14 C7          43.5890     5.1410    15.3110 ca         1 RKQ       0.338500
     15 C8          43.6040     2.6230    15.3290 c3         1 RKQ       0.046600
     16 C9          44.6280     2.2050    14.2510 c3         1 RKQ       0.144600
     17 C10         43.1830     0.7100    12.8870 ca         1 RKQ       0.127100
     18 C11         42.4390     1.7720    12.3250 ca         1 RKQ      -0.170500
     19 C12         41.3570     1.5010    11.4700 ca         1 RKQ      -0.078500
     20 C13         41.0160     0.1720    11.1680 ca         1 RKQ      -0.145000
     21 C14         41.7560    -0.8870    11.7190 ca         1 RKQ      -0.078500
     22 C15         42.8380    -0.6150    12.5740 ca         1 RKQ      -0.170500
     23 C16         42.1850     6.9350    12.4080 cp         1 RKQ      -0.032500
     24 C17         42.1660     5.9580    11.3770 ca         1 RKQ      -0.260500
     25 C18         41.5520     6.2530    10.1580 ca         1 RKQ       0.632400
     26 C19         40.9810     8.3080    10.8010 ca         1 RKQ       0.632400
     27 C20         41.5490     8.1570    12.0680 ca         1 RKQ      -0.260500
     28 H1          45.4770     3.7870    18.9780 hc         1 RKQ       0.062700
     29 H2          44.1380     2.7090    18.5480 hc         1 RKQ       0.062700
     30 H3          45.6810     2.6010    17.6790 hc         1 RKQ       0.062700
     31 H4          44.1220     8.2650    16.5360 ha         1 RKQ       0.136000
     32 H5          41.2450     5.8350     8.2550 hn         1 RKQ       0.470250
     33 H6          42.2060     4.6790     9.0950 hn         1 RKQ       0.470250
     34 H7          43.0740     8.7830    14.3170 ha         1 RKQ       0.130000
     35 H8          39.7950     9.2900     9.5680 hn         1 RKQ       0.470250
     36 H9          39.9720    10.0180    11.1190 hn         1 RKQ       0.470250
     37 H10         42.5960     2.6460    14.8980 h1         1 RKQ       0.077200
     38 H11         43.6020     1.8730    16.1300 h1         1 RKQ       0.077200
     39 H12         45.6200     2.1490    14.7180 h1         1 RKQ       0.065700
     40 H13         44.6840     2.9570    13.4540 h1         1 RKQ       0.065700
     41 H14         42.6830     2.8080    12.5380 ha         1 RKQ       0.130000
     42 H15         40.7840     2.3200    11.0400 ha         1 RKQ       0.117000
     43 H16         40.1780    -0.0370    10.5050 ha         1 RKQ       0.116000
     44 H17         41.4930    -1.9170    11.4830 ha         1 RKQ       0.117000
     45 H18         43.4110    -1.4350    12.9990 ha         1 RKQ       0.130000
     46 H19         42.6270     4.9880    11.5210 ha         1 RKQ       0.127000
     47 H20         41.4830     8.9750    12.7770 ha         1 RKQ       0.127000
@<TRIPOS>BOND
     1     1     4 1   
     2     1    28 1   
     3     1    29 1   
     4     1    30 1   
     5     2     4 2   
     6     2     6 1   
     7     3    16 1   
     8     3    17 1   
     9     4     7 1   
    10     5    12 ar  
    11     5    14 ar  
    12     6     8 ar  
    13     6    14 ar  
    14     7    14 1   
    15     7    15 1   
    16     8    10 ar  
    17     8    31 1   
    18     9    25 1   
    19     9    32 1   
    20     9    33 1   
    21    10    12 ar  
    22    10    34 1   
    23    11    25 ar  
    24    11    26 ar  
    25    12    23 1   
    26    13    26 1   
    27    13    35 1   
    28    13    36 1   
    29    15    16 1   
    30    15    37 1   
    31    15    38 1   
    32    16    39 1   
    33    16    40 1   
    34    17    18 ar  
    35    17    22 ar  
    36    18    19 ar  
    37    18    41 1   
    38    19    20 ar  
    39    19    42 1   
    40    20    21 ar  
    41    20    43 1   
    42    21    22 ar  
    43    21    44 1   
    44    22    45 1   
    45    23    24 ar  
    46    23    27 ar  
    47    24    25 ar  
    48    24    46 1   
    49    26    27 ar  
    50    27    47 1   
@<TRIPOS>SUBSTRUCTURE
     1 RKQ         1 TEMP              0 ****  ****    0 ROOT
