@<TRIPOS>MOLECULE
RKQ
   47    50     1     0     0
SMALL
abcg2


@<TRIPOS>ATOM
      1 C1          44.9460     3.3090    18.0600 c3         1 RKQ      -0.116400
      2 N1          44.7350     5.6160    17.1870 nc         1 RKQ      -0.568100
      3 O1          43.9910     0.9030    13.9650 os         1 RKQ      -0.344100
      4 C2          44.5100     4.3330    17.0790 cd         1 RKQ       0.438800
      5 N2          42.9650     5.3330    14.1320 nb         1 RKQ      -0.671000
      6 C3          44.1660     6.1770    16.0740 ca         1 RKQ       0.041400
      7 N3          43.8100     4.0060    15.9490 na         1 RKQ      -0.292300
      8 C4          44.0690     7.4830    15.6160 ca         1 RKQ      -0.019000
      9 N4          41.5390     5.0880     9.2480 nv         1 RKQ      -1.057400
     10 C5          43.4040     7.6760    14.4140 ca         1 RKQ      -0.169000
     11 N5          40.8670     7.1550     9.9830 nb         1 RKQ      -0.808000
     12 C6          42.8670     6.5920    13.7010 cp         1 RKQ       0.413500
     13 N6          40.1380     9.2350    10.6110 nv         1 RKQ      -1.057400
     14 C7          43.5880     5.1780    15.2770 ca         1 RKQ       0.338500
     15 C8          43.4030     2.6980    15.4910 c3         1 RKQ       0.046600
     16 C9          44.4050     2.1500    14.4760 c3         1 RKQ       0.144600
     17 C10         43.0800     0.8540    12.9660 ca         1 RKQ       0.127100
     18 C11         42.4740     1.9670    12.3890 ca         1 RKQ      -0.170500
     19 C12         41.5690     1.7940    11.3470 ca         1 RKQ      -0.078500
     20 C13         41.2530     0.5290    10.8770 ca         1 RKQ      -0.145000
     21 C14         41.8550    -0.5780    11.4660 ca         1 RKQ      -0.078500
     22 C15         42.7610    -0.4220    12.5000 ca         1 RKQ      -0.170500
     23 C16         42.1750     6.7980    12.4100 cp         1 RKQ      -0.032500
     24 C17         42.2360     5.8180    11.4280 ca         1 RKQ      -0.260500
     25 C18         41.5570     6.0430    10.2260 ca         1 RKQ       0.632400
     26 C19         40.8170     8.0950    10.9250 ca         1 RKQ       0.632400
     27 C20         41.4550     7.9610    12.1650 ca         1 RKQ      -0.260500
     28 H1          45.5010     3.7890    18.8610 hc         1 RKQ       0.062700
     29 H2          44.0920     2.7870    18.4950 hc         1 RKQ       0.062700
     30 H3          45.5880     2.5600    17.5950 hc         1 RKQ       0.062700
     31 H4          44.4940     8.3160    16.1610 ha         1 RKQ       0.136000
     32 H5          41.2950     5.4060     8.3230 hn         1 RKQ       0.470250
     33 H6          42.2770     4.4040     9.2610 hn         1 RKQ       0.470250
     34 H7          43.3190     8.6740    14.0090 ha         1 RKQ       0.130000
     35 H8          39.4830     9.1750     9.8490 hn         1 RKQ       0.470250
     36 H9          39.8450     9.8310    11.3670 hn         1 RKQ       0.470250
     37 H10         42.4050     2.7860    15.0600 h1         1 RKQ       0.077200
     38 H11         43.3250     2.0280    16.3470 h1         1 RKQ       0.077200
     39 H12         45.3610     1.9710    14.9700 h1         1 RKQ       0.065700
     40 H13         44.5820     2.8770    13.6780 h1         1 RKQ       0.065700
     41 H14         42.6790     2.9710    12.7370 ha         1 RKQ       0.130000
     42 H15         41.1110     2.6680    10.9020 ha         1 RKQ       0.117000
     43 H16         40.5470     0.4050    10.0660 ha         1 RKQ       0.116000
     44 H17         41.6200    -1.5750    11.1150 ha         1 RKQ       0.117000
     45 H18         43.2320    -1.2870    12.9520 ha         1 RKQ       0.130000
     46 H19         42.8040     4.9100    11.5750 ha         1 RKQ       0.127000
     47 H20         41.3570     8.7400    12.9100 ha         1 RKQ       0.127000
@<TRIPOS>BOND
     1     1     4 1   
     2     1    28 1   
     3     1    29 1   
     4     1    30 1   
     5     2     4 2   
     6     2     6 1   
     7     3    16 1   
     8     3    17 1   
     9     4     7 1   
    10     5    12 ar  
    11     5    14 ar  
    12     6     8 ar  
    13     6    14 ar  
    14     7    14 1   
    15     7    15 1   
    16     8    10 ar  
    17     8    31 1   
    18     9    25 1   
    19     9    32 1   
    20     9    33 1   
    21    10    12 ar  
    22    10    34 1   
    23    11    25 ar  
    24    11    26 ar  
    25    12    23 1   
    26    13    26 1   
    27    13    35 1   
    28    13    36 1   
    29    15    16 1   
    30    15    37 1   
    31    15    38 1   
    32    16    39 1   
    33    16    40 1   
    34    17    18 ar  
    35    17    22 ar  
    36    18    19 ar  
    37    18    41 1   
    38    19    20 ar  
    39    19    42 1   
    40    20    21 ar  
    41    20    43 1   
    42    21    22 ar  
    43    21    44 1   
    44    22    45 1   
    45    23    24 ar  
    46    23    27 ar  
    47    24    25 ar  
    48    24    46 1   
    49    26    27 ar  
    50    27    47 1   
@<TRIPOS>SUBSTRUCTURE
     1 RKQ         1 TEMP              0 ****  ****    0 ROOT
