@<TRIPOS>MOLECULE
RKR
   42    44     1     0     0
SMALL
abcg2


@<TRIPOS>ATOM
      1 N1         -16.4920     4.5160    27.2810 nb         1 RKR      -0.659000
      2 C4         -16.7950     7.0950    24.6510 ca         1 RKR      -0.037000
      3 C5         -17.0850     6.3090    25.7920 ca         1 RKR      -0.135000
      4 C6         -16.2500     5.2610    26.2210 ca         1 RKR       0.357900
      5 C7         -17.6240     4.7720    27.9840 ca         1 RKR       0.328900
      6 C8         -18.5150     5.7710    27.6670 ca         1 RKR      -0.095000
      7 C10        -21.3310     5.9730    30.1980 c3         1 RKR      -0.110100
      8 C13        -22.5570     2.5930    31.4460 ca         1 RKR      -0.099000
      9 C15        -23.2170     2.8520    29.1670 ca         1 RKR       0.125000
     10 C17        -18.2610     6.6070    26.5380 ca         1 RKR       0.027000
     11 CL         -24.0050     2.2220    27.7320 cl         1 RKR      -0.213000
     12 C14        -23.1850     2.0760    30.3180 ca         1 RKR      -0.096000
     13 C12        -21.9750     3.8550    31.4170 ca         1 RKR      -0.087000
     14 C16        -22.6430     4.1140    29.1200 ca         1 RKR      -0.100000
     15 C11        -22.0120     4.6250    30.2550 ca         1 RKR      -0.078300
     16 C9         -19.8880     5.7930    29.7390 c          1 RKR       0.602100
     17 O          -19.0010     5.4740    30.5210 o          1 RKR      -0.577100
     18 N2         -19.7000     5.9700    28.4040 ns         1 RKR      -0.147000
     19 C3         -17.6110     8.1190    24.2680 ca         1 RKR      -0.172000
     20 C18        -19.0860     7.6740    26.1470 ca         1 RKR      -0.229000
     21 C2         -18.7920     8.4420    25.0150 ca         1 RKR       0.363000
     22 N          -19.5920     9.4730    24.6230 nh         1 RKR      -0.834400
     23 C1         -20.7380     9.8440    25.4340 c3         1 RKR       0.219100
     24 C          -19.2110    10.3340    23.5120 c3         1 RKR       0.219100
     25 H1         -15.9030     6.8750    24.0780 ha         1 RKR       0.116000
     26 H2         -15.3490     5.0410    25.6550 h4         1 RKR       0.016100
     27 H3         -17.8120     4.1370    28.8380 h4         1 RKR       0.040100
     28 H4         -21.3010     6.4220    31.1890 hc         1 RKR       0.070700
     29 H5         -21.8690     6.6410    29.5250 hc         1 RKR       0.070700
     30 H6         -22.5260     2.0030    32.3530 ha         1 RKR       0.122000
     31 H7         -23.6410     1.0970    30.3320 ha         1 RKR       0.132000
     32 H8         -21.4880     4.2470    32.3010 ha         1 RKR       0.127000
     33 H9         -22.6870     4.6960    28.2090 ha         1 RKR       0.123000
     34 H10        -20.5020     6.2850    27.8800 hn         1 RKR       0.150000
     35 H11        -17.3530     8.6960    23.3940 ha         1 RKR       0.116000
     36 H12        -19.9510     7.9170    26.7420 ha         1 RKR       0.108000
     37 H13        -21.2680    10.6580    24.9490 h1         1 RKR       0.038867
     38 H14        -21.4280     9.0040    25.5470 h1         1 RKR       0.038867
     39 H15        -20.4380    10.1730    26.4360 h1         1 RKR       0.038867
     40 H16        -19.9940    11.0700    23.3580 h1         1 RKR       0.038867
     41 H17        -18.2730    10.8640    23.7080 h1         1 RKR       0.038867
     42 H18        -19.0970     9.7640    22.5880 h1         1 RKR       0.038867
@<TRIPOS>BOND
     1     1     4 ar  
     2     1     5 ar  
     3     2     3 ar  
     4     2    19 ar  
     5     2    25 1   
     6     3     4 ar  
     7     3    10 ar  
     8     4    26 1   
     9     5     6 ar  
    10     5    27 1   
    11     6    10 ar  
    12     6    18 1   
    13     7    15 1   
    14     7    16 1   
    15     7    28 1   
    16     7    29 1   
    17     8    12 ar  
    18     8    13 ar  
    19     8    30 1   
    20     9    11 1   
    21     9    12 ar  
    22     9    14 ar  
    23    10    20 ar  
    24    12    31 1   
    25    13    15 ar  
    26    13    32 1   
    27    14    15 ar  
    28    14    33 1   
    29    16    17 2   
    30    16    18 1   
    31    18    34 1   
    32    19    21 ar  
    33    19    35 1   
    34    20    21 ar  
    35    20    36 1   
    36    21    22 1   
    37    22    23 1   
    38    22    24 1   
    39    23    37 1   
    40    23    38 1   
    41    23    39 1   
    42    24    40 1   
    43    24    41 1   
    44    24    42 1   
@<TRIPOS>SUBSTRUCTURE
     1 RKR         1 TEMP              0 ****  ****    0 ROOT
