@<TRIPOS>MOLECULE
RKR
   42    44     1     0     0
SMALL
No Charge or Current Charge


@<TRIPOS>ATOM
      1 N1         -15.4570     5.2160    27.5490 nb         1 RKR      -0.659000
      2 C4         -16.8420     7.1000    24.6850 ca         1 RKR      -0.037000
      3 C5         -16.7560     6.4980    25.9530 ca         1 RKR      -0.135000
      4 C6         -15.5900     5.8150    26.3450 ca         1 RKR       0.357900
      5 C7         -16.5020     5.2820    28.4060 ca         1 RKR       0.328900
      6 C8         -17.7160     5.9450    28.1070 ca         1 RKR      -0.095000
      7 C10        -20.3870     5.6230    30.8590 c3         1 RKR      -0.110100
      8 C13        -23.2200     3.1400    30.0980 ca         1 RKR      -0.099000
      9 C15        -23.3870     5.0050    28.5470 ca         1 RKR       0.125000
     10 C17        -17.8430     6.5700    26.8450 ca         1 RKR       0.027000
     11 Cl         -24.1850     5.7980    27.1940 cl         1 RKR      -0.213000
     12 C14        -23.8650     3.7730    29.0210 ca         1 RKR      -0.096000
     13 C12        -22.0970     3.7390    30.6980 ca         1 RKR      -0.087000
     14 C16        -22.2680     5.6060    29.1460 ca         1 RKR      -0.100000
     15 C11        -21.6160     4.9760    30.2260 ca         1 RKR      -0.078300
     16 C9         -19.1190     5.1910    30.1130 c          1 RKR       0.602100
     17 O          -18.5030     4.1730    30.4070 o          1 RKR      -0.577100
     18 N2         -18.7890     6.0080    29.0420 ns         1 RKR      -0.147000
     19 C3         -18.0180     7.7670    24.3050 ca         1 RKR      -0.172000
     20 C18        -19.0200     7.2420    26.4510 ca         1 RKR      -0.229000
     21 C2         -19.1190     7.8400    25.1800 ca         1 RKR       0.363000
     22 N          -20.3130     8.5000    24.7920 nh         1 RKR      -0.834400
     23 C1         -21.6380     8.0570    25.2890 c3         1 RKR       0.219100
     24 C          -20.2940     9.6380    23.8430 c3         1 RKR       0.219100
     25 H1         -16.0040     7.0460    23.9930 ha         1 RKR       0.116000
     26 H2         -14.7330     5.7440    25.6760 h4         1 RKR       0.016100
     27 H3         -16.3400     4.8060    29.3720 h4         1 RKR       0.040100
     28 H4         -20.3050     5.3260    31.9110 hc         1 RKR       0.070700
     29 H5         -20.4970     6.7110    30.7880 hc         1 RKR       0.070700
     30 H6         -23.5870     2.1840    30.4670 ha         1 RKR       0.122000
     31 H7         -24.7310     3.3100    28.5550 ha         1 RKR       0.132000
     32 H8         -21.6010     3.2390    31.5270 ha         1 RKR       0.127000
     33 H9         -21.9110     6.5600    28.7670 ha         1 RKR       0.123000
     34 H10        -19.4270     6.7780    28.8900 hn         1 RKR       0.150000
     35 H11        -18.0740     8.2120    23.3170 ha         1 RKR       0.116000
     36 H12        -19.8640     7.3080    27.1270 ha         1 RKR       0.108000
     37 H13        -22.4300     8.3140    24.5730 h1         1 RKR       0.038867
     38 H14        -21.6560     6.9670    25.4240 h1         1 RKR       0.038867
     39 H15        -21.8690     8.5340    26.2500 h1         1 RKR       0.038867
     40 H16        -21.1610    10.2940    24.0030 h1         1 RKR       0.038867
     41 H17        -19.3890    10.2450    23.9840 h1         1 RKR       0.038867
     42 H18        -20.3180     9.2760    22.8060 h1         1 RKR       0.038867
@<TRIPOS>BOND
     1     1     4 ar  
     2     1     5 ar  
     3     2     3 ar  
     4     2    19 ar  
     5     2    25 1   
     6     3     4 ar  
     7     3    10 ar  
     8     4    26 1   
     9     5     6 ar  
    10     5    27 1   
    11     6    10 ar  
    12     6    18 1   
    13     7    15 1   
    14     7    16 1   
    15     7    28 1   
    16     7    29 1   
    17     8    12 ar  
    18     8    13 ar  
    19     8    30 1   
    20     9    11 1   
    21     9    12 ar  
    22     9    14 ar  
    23    10    20 ar  
    24    12    31 1   
    25    13    15 ar  
    26    13    32 1   
    27    14    15 ar  
    28    14    33 1   
    29    16    17 2   
    30    16    18 1   
    31    18    34 1   
    32    19    21 ar  
    33    19    35 1   
    34    20    21 ar  
    35    20    36 1   
    36    21    22 1   
    37    22    23 1   
    38    22    24 1   
    39    23    37 1   
    40    23    38 1   
    41    23    39 1   
    42    24    40 1   
    43    24    41 1   
    44    24    42 1   
@<TRIPOS>SUBSTRUCTURE
     1 RKR         1 TEMP              0 ****  ****    0 ROOT
