@<TRIPOS>MOLECULE
RKS
   74    74     1     0     0
SMALL
No Charge or Current Charge


@<TRIPOS>ATOM
      1 C1           3.1410    -0.8490     1.6980 ca         1 RKS      -0.167600
      2 N1           2.1380    -1.1110    -0.5230 ns         1 RKS      -0.494900
      3 O1           1.7890    -0.8960     3.7250 oh         1 RKS      -0.500100
      4 C2           3.0050    -0.9160     3.1080 ca         1 RKS       0.178100
      5 N4          -1.1710    -1.7840    -2.1740 ns         1 RKS      -0.496900
      6 O2           3.9870    -1.1150     5.3000 oh         1 RKS      -0.557100
      7 C4           4.1410    -1.0430     3.9380 ca         1 RKS       0.032100
      8 O3           0.8760    -0.2130     1.1390 o          1 RKS      -0.564100
      9 C5           5.4240    -1.1030     3.3770 ca         1 RKS      -0.142000
     10 N2          -4.5520     0.1030     3.4680 n          1 RKS      -0.297300
     11 C6           5.5760    -1.0360     1.9850 ca         1 RKS      -0.122000
     12 C7           4.4500    -0.9110     1.1530 ca         1 RKS      -0.087000
     13 C8           1.9390    -0.7030     0.7840 c          1 RKS       0.635700
     14 O6          -4.6560     1.5380     3.3440 oh         1 RKS      -0.424100
     15 O7          -5.2420    -1.8250     4.5400 o          1 RKS      -0.590100
     16 C9           1.1430    -1.0170    -1.6190 c3         1 RKS       0.050700
     17 C10          0.7240     0.4500    -1.9440 c3         1 RKS      -0.078400
     18 C11         -0.0600    -1.9900    -1.3770 c          1 RKS       0.584100
     19 C12         -2.4530    -2.5170    -2.0530 c3         1 RKS       0.058700
     20 C13          1.9140     1.4250    -2.1230 c3         1 RKS      -0.069400
     21 C14          1.4690     2.8510    -2.5150 c3         1 RKS      -0.103400
     22 C15         -3.0490    -2.8060    -3.4580 c          1 RKS       0.578100
     23 C16         -3.4670    -1.7650    -1.1500 c3         1 RKS      -0.084400
     24 C17         -2.9740    -1.4990     0.2930 c3         1 RKS      -0.073400
     25 C18         -4.0370    -0.8190     1.1810 c3         1 RKS      -0.103400
     26 C19         -3.5310    -0.5410     2.6120 c3         1 RKS       0.102000
     27 C20         -5.3420    -0.6100     4.4120 c          1 RKS       0.612100
     28 C21         -6.3310     0.1840     5.2660 c3         1 RKS      -0.168100
     29 HN1          3.0330    -1.5390    -0.7250 hn         1 RKS       0.320500
     30 HO1          1.9860    -0.9650     4.6860 ho         1 RKS       0.483000
     31 HN2         -1.1060    -1.0530    -2.8730 hn         1 RKS       0.316500
     32 HO2          4.8740    -1.2020     5.7170 ho         1 RKS       0.476000
     33 H5           6.5710    -1.0760     1.5460 ha         1 RKS       0.118000
     34 H6           4.6170    -0.8380     0.0800 ha         1 RKS       0.118000
     35 C22         -4.6400    -4.1770    -4.6450 c3         1 RKS       0.151900
     36 HO7         -5.3260     1.6920     2.6410 ho         1 RKS       0.432000
     37 HO8          1.6380    -1.4010    -2.5200 h1         1 RKS       0.059700
     38 H12          0.1350     0.4600    -2.8680 hc         1 RKS       0.058700
     39 H13          0.0660     0.8290    -1.1520 hc         1 RKS       0.058700
     40 H13A        -2.2590    -3.5020    -1.6070 h1         1 RKS       0.104700
     41 H17          2.4900     1.4810    -1.1910 hc         1 RKS       0.041700
     42 H18          2.5880     1.0320    -2.8950 hc         1 RKS       0.041700
     43 C23          2.6530     3.8240    -2.6890 c3         1 RKS       0.102000
     44 H18A         0.8990     2.8100    -3.4510 hc         1 RKS       0.055200
     45 H19          0.7940     3.2450    -1.7450 hc         1 RKS       0.055200
     46 H19A        -3.7240    -0.8090    -1.6220 hc         1 RKS       0.055700
     47 H19B        -4.3950    -2.3490    -1.1010 hc         1 RKS       0.055700
     48 H30         -2.6730    -2.4500     0.7530 hc         1 RKS       0.051200
     49 H30A        -2.0820    -0.8600     0.2640 hc         1 RKS       0.051200
     50 H31         -4.3450     0.1260     0.7170 hc         1 RKS       0.044700
     51 H31A        -4.9280    -1.4580     1.2350 hc         1 RKS       0.044700
     52 H32         -2.6510     0.1150     2.5620 h1         1 RKS       0.071700
     53 H32A        -3.2050    -1.4830     3.0730 h1         1 RKS       0.071700
     54 H33         -6.8900    -0.4500     5.9630 hc         1 RKS       0.064700
     55 H33A        -5.7910     0.9810     5.7900 hc         1 RKS       0.064700
     56 H37         -7.0020     0.7470     4.6080 hc         1 RKS       0.064700
     57 N3           2.2230     5.1890    -3.0660 n          1 RKS      -0.288300
     58 C24          2.1050     6.2570    -2.1320 c          1 RKS       0.608100
     59 O9           1.9000     5.3810    -4.4620 oh         1 RKS      -0.442100
     60 O10          2.3700     6.1010    -0.9460 o          1 RKS      -0.582100
     61 C25          1.6330     7.6160    -2.6520 c3         1 RKS      -0.167100
     62 H311        -5.1700    -3.3240    -5.0890 h1         1 RKS       0.049367
     63 H321        -3.9060    -4.5470    -5.3720 h1         1 RKS       0.049367
     64 H331        -5.3710    -4.9740    -4.4640 h1         1 RKS       0.049367
     65 H34          3.2310     3.8640    -1.7560 h1         1 RKS       0.061700
     66 H35          3.3230     3.4390    -3.4690 h1         1 RKS       0.061700
     67 H36          2.7440     5.6460    -4.8940 ho         1 RKS       0.444000
     68 H371         0.6770     7.4870    -3.1710 hc         1 RKS       0.064367
     69 H38          1.5630     8.3690    -1.8600 hc         1 RKS       0.064367
     70 H39          2.2980     7.9410    -3.4590 hc         1 RKS       0.064367
     71 H4           6.3040    -1.2000     4.0100 ha         1 RKS       0.114000
     72 O4          -0.0370    -2.8890    -0.5450 o          1 RKS      -0.566100
     73 O5          -3.9970    -3.7980    -3.4140 os         1 RKS      -0.435100
     74 O8          -2.7070    -2.2280    -4.4840 o          1 RKS      -0.488000
@<TRIPOS>BOND
     1     1     4 ar  
     2     1    12 ar  
     3     1    13 1   
     4     2    13 1   
     5     2    16 1   
     6     2    29 1   
     7     3     4 1   
     8     3    30 1   
     9     4     7 ar  
    10     5    18 1   
    11     5    19 1   
    12     5    31 1   
    13     6     7 1   
    14     6    32 1   
    15     7     9 ar  
    16     8    13 2   
    17     9    11 ar  
    18     9    71 1   
    19    10    14 1   
    20    10    26 1   
    21    10    27 1   
    22    11    12 ar  
    23    11    33 1   
    24    12    34 1   
    25    14    36 1   
    26    15    27 2   
    27    16    17 1   
    28    16    18 1   
    29    16    37 1   
    30    17    20 1   
    31    17    38 1   
    32    17    39 1   
    33    18    72 2   
    34    19    22 1   
    35    19    23 1   
    36    19    40 1   
    37    20    21 1   
    38    20    41 1   
    39    20    42 1   
    40    21    43 1   
    41    21    44 1   
    42    21    45 1   
    43    22    73 1   
    44    22    74 2   
    45    23    24 1   
    46    23    46 1   
    47    23    47 1   
    48    24    25 1   
    49    24    48 1   
    50    24    49 1   
    51    25    26 1   
    52    25    50 1   
    53    25    51 1   
    54    26    52 1   
    55    26    53 1   
    56    27    28 1   
    57    28    54 1   
    58    28    55 1   
    59    28    56 1   
    60    35    62 1   
    61    35    63 1   
    62    35    64 1   
    63    35    73 1   
    64    43    57 1   
    65    43    65 1   
    66    43    66 1   
    67    57    58 1   
    68    57    59 1   
    69    58    60 2   
    70    58    61 1   
    71    59    67 1   
    72    61    68 1   
    73    61    69 1   
    74    61    70 1   
@<TRIPOS>SUBSTRUCTURE
     1 RKS         1 TEMP              0 ****  ****    0 ROOT
