@<TRIPOS>MOLECULE
RKS
   74    74     1     0     0
SMALL
abcg2


@<TRIPOS>ATOM
      1 C1           4.4760    -1.6010     0.3710 ca         1 RKS      -0.167600
      2 N1           2.4820    -1.1410    -0.8530 ns         1 RKS      -0.494900
      3 O1           4.0420    -3.0370     2.2030 oh         1 RKS      -0.500100
      4 C2           4.9140    -2.5160     1.3240 ca         1 RKS       0.178100
      5 N4          -1.1530    -1.5500    -0.7330 ns         1 RKS      -0.496900
      6 O2           6.6010    -3.8080     2.2820 oh         1 RKS      -0.557100
      7 C4           6.2620    -2.9060     1.3330 ca         1 RKS       0.032100
      8 O3           2.4910    -0.7530     1.3790 o          1 RKS      -0.564100
      9 C5           7.1500    -2.3780     0.4130 ca         1 RKS      -0.142000
     10 N2          -6.7430     1.6700     0.9170 n          1 RKS      -0.297300
     11 C6           6.7100    -1.4600    -0.5340 ca         1 RKS      -0.122000
     12 C7           5.3810    -1.0790    -0.5570 ca         1 RKS      -0.087000
     13 C8           3.0520    -1.1400     0.3680 c          1 RKS       0.635700
     14 O6          -6.7870     2.5890    -0.0970 oh         1 RKS      -0.424100
     15 O7          -7.8660     0.5860     2.5240 o          1 RKS      -0.590100
     16 C9           1.1170    -0.7660    -1.1130 c3         1 RKS       0.050700
     17 C10          0.7690     0.6690    -0.6900 c3         1 RKS      -0.078400
     18 C11          0.1550    -1.8140    -0.5420 c          1 RKS       0.584100
     19 C12         -2.1670    -2.5060    -0.3770 c3         1 RKS       0.058700
     20 C13          1.7290     1.7060    -1.2560 c3         1 RKS      -0.069400
     21 C14          1.3390     3.1200    -0.8440 c3         1 RKS      -0.103400
     22 C15         -2.0360    -3.7610    -1.2280 c          1 RKS       0.578100
     23 C16         -3.5570    -1.8930    -0.5670 c3         1 RKS      -0.084400
     24 C17         -3.8250    -0.7310     0.3810 c3         1 RKS      -0.073400
     25 C18         -5.2010    -0.1190     0.1550 c3         1 RKS      -0.103400
     26 C19         -5.4660     1.0260     1.1280 c3         1 RKS       0.102000
     27 C20         -7.8690     1.4090     1.6180 c          1 RKS       0.612100
     28 C21         -9.1020     2.1810     1.2230 c3         1 RKS      -0.168100
     29 HN1          2.9740    -1.6020    -1.6000 hn         1 RKS       0.320500
     30 HO1          4.4810    -3.6940     2.7580 ho         1 RKS       0.483000
     31 HN2         -1.4170    -0.7950    -1.3460 hn         1 RKS       0.316500
     32 HO2          7.5190    -4.0850     2.1850 ho         1 RKS       0.476000
     33 H5           7.4090    -1.0450    -1.2460 ha         1 RKS       0.118000
     34 H6           5.0420    -0.3570    -1.2880 ha         1 RKS       0.118000
     35 C22         -2.6110    -6.0410    -1.3380 c3         1 RKS       0.151900
     36 HO7         -6.9700     2.1000    -0.9120 ho         1 RKS       0.432000
     37 HO8          1.0060    -0.8150    -2.2020 h1         1 RKS       0.059700
     38 H12         -0.2340     0.9030    -1.0550 hc         1 RKS       0.058700
     39 H13          0.7290     0.7450     0.3960 hc         1 RKS       0.058700
     40 H13A        -2.0510    -2.7860     0.6730 h1         1 RKS       0.104700
     41 H17          2.7490     1.5030    -0.9210 hc         1 RKS       0.041700
     42 H18          1.7440     1.6290    -2.3490 hc         1 RKS       0.041700
     43 C23          2.2580     4.1610    -1.4700 c3         1 RKS       0.102000
     44 H18A         0.3050     3.3190    -1.1390 hc         1 RKS       0.055200
     45 H19          1.3820     3.2080     0.2450 hc         1 RKS       0.055200
     46 H19A        -3.6700    -1.5680    -1.6070 hc         1 RKS       0.055700
     47 H19B        -4.3070    -2.6700    -0.4030 hc         1 RKS       0.055700
     48 H30         -3.7420    -1.0830     1.4140 hc         1 RKS       0.051200
     49 H30A        -3.0620     0.0430     0.2590 hc         1 RKS       0.051200
     50 H31         -5.2700     0.2420    -0.8750 hc         1 RKS       0.044700
     51 H31A        -5.9750    -0.8820     0.2770 hc         1 RKS       0.044700
     52 H32         -4.6900     1.7880     1.0410 h1         1 RKS       0.071700
     53 H32A        -5.4410     0.6600     2.1530 h1         1 RKS       0.071700
     54 H33         -9.9170     1.8980     1.8840 hc         1 RKS       0.064700
     55 H33A        -8.9470     3.2570     1.2980 hc         1 RKS       0.064700
     56 H37         -9.3990     1.9660     0.1960 hc         1 RKS       0.064700
     57 N3           1.9330     5.5200    -1.0940 n          1 RKS      -0.288300
     58 C24          2.4220     6.1330     0.0110 c          1 RKS       0.608100
     59 O9           0.7750     6.0130    -1.6410 oh         1 RKS      -0.442100
     60 O10          3.3180     5.6210     0.6660 o          1 RKS      -0.582100
     61 C25          1.8250     7.4730     0.3570 c3         1 RKS      -0.167100
     62 H311        -3.1850    -5.9550    -2.2600 h1         1 RKS       0.049367
     63 H321        -1.6040    -6.3870    -1.5710 h1         1 RKS       0.049367
     64 H331        -3.0930    -6.7550    -0.6770 h1         1 RKS       0.049367
     65 H34          3.2920     3.9790    -1.1820 h1         1 RKS       0.061700
     66 H35          2.2200     4.0970    -2.5610 h1         1 RKS       0.061700
     67 H36          1.0350     6.4710    -2.4520 ho         1 RKS       0.444000
     68 H371         0.7840     7.3730     0.6650 hc         1 RKS       0.064367
     69 H38          2.3890     7.9050     1.1800 hc         1 RKS       0.064367
     70 H39          1.8500     8.1630    -0.4860 hc         1 RKS       0.064367
     71 H4           8.1890    -2.6850     0.4330 ha         1 RKS       0.114000
     72 O4           0.5360    -2.8250     0.0180 o          1 RKS      -0.566100
     73 O5          -2.5830    -4.8030    -0.6250 os         1 RKS      -0.435100
     74 O8          -1.5410    -3.7930    -2.3250 o          1 RKS      -0.488000
@<TRIPOS>BOND
     1     1     4 ar  
     2     1    12 ar  
     3     1    13 1   
     4     2    13 1   
     5     2    16 1   
     6     2    29 1   
     7     3     4 1   
     8     3    30 1   
     9     4     7 ar  
    10     5    18 1   
    11     5    19 1   
    12     5    31 1   
    13     6     7 1   
    14     6    32 1   
    15     7     9 ar  
    16     8    13 2   
    17     9    11 ar  
    18     9    71 1   
    19    10    14 1   
    20    10    26 1   
    21    10    27 1   
    22    11    12 ar  
    23    11    33 1   
    24    12    34 1   
    25    14    36 1   
    26    15    27 2   
    27    16    17 1   
    28    16    18 1   
    29    16    37 1   
    30    17    20 1   
    31    17    38 1   
    32    17    39 1   
    33    18    72 2   
    34    19    22 1   
    35    19    23 1   
    36    19    40 1   
    37    20    21 1   
    38    20    41 1   
    39    20    42 1   
    40    21    43 1   
    41    21    44 1   
    42    21    45 1   
    43    22    73 1   
    44    22    74 2   
    45    23    24 1   
    46    23    46 1   
    47    23    47 1   
    48    24    25 1   
    49    24    48 1   
    50    24    49 1   
    51    25    26 1   
    52    25    50 1   
    53    25    51 1   
    54    26    52 1   
    55    26    53 1   
    56    27    28 1   
    57    28    54 1   
    58    28    55 1   
    59    28    56 1   
    60    35    62 1   
    61    35    63 1   
    62    35    64 1   
    63    35    73 1   
    64    43    57 1   
    65    43    65 1   
    66    43    66 1   
    67    57    58 1   
    68    57    59 1   
    69    58    60 2   
    70    58    61 1   
    71    59    67 1   
    72    61    68 1   
    73    61    69 1   
    74    61    70 1   
@<TRIPOS>SUBSTRUCTURE
     1 RKS         1 TEMP              0 ****  ****    0 ROOT
