@<TRIPOS>MOLECULE
RKT
   20    22     1     0     0
SMALL
abcg2


@<TRIPOS>ATOM
      1 N5           1.3670     1.5720     0.0150 nb         1 RKT      -0.589000
      2 N6           2.7310    -0.8630    -0.0120 nb         1 RKT      -0.627000
      3 N7          -2.7660    -0.8620     0.0130 nb         1 RKT      -0.627000
      4 N8          -1.4020     1.5730     0.0240 nb         1 RKT      -0.589000
      5 C19          0.7030     0.4090     0.0080 ca         1 RKT       0.252000
      6 C20          2.6750     1.5110     0.0090 ca         1 RKT       0.290900
      7 C21          3.3620     0.2840    -0.0050 ca         1 RKT       0.301400
      8 C22          1.3860    -0.8220    -0.0050 ca         1 RKT       0.235500
      9 C23          0.6590    -2.0520    -0.0110 ca         1 RKT      -0.071000
     10 C24         -0.6940    -2.0520    -0.0050 ca         1 RKT      -0.071000
     11 C25         -1.4210    -0.8220     0.0070 ca         1 RKT       0.235500
     12 C26         -0.7380     0.4090     0.0140 ca         1 RKT       0.252000
     13 C27         -3.3970     0.2840     0.0260 ca         1 RKT       0.301400
     14 C28         -2.7090     1.5120     0.0300 ca         1 RKT       0.290900
     15 H20          3.2260     2.4440     0.0140 h4         1 RKT       0.035100
     16 H21          4.4460     0.2660    -0.0120 h4         1 RKT       0.033100
     17 H23          1.2200    -2.9760    -0.0200 ha         1 RKT       0.141000
     18 H24         -1.2560    -2.9760    -0.0090 ha         1 RKT       0.141000
     19 H27         -4.4800     0.2670     0.0330 h4         1 RKT       0.033100
     20 H28         -3.2610     2.4450     0.0390 h4         1 RKT       0.035100
@<TRIPOS>BOND
     1     1     5 ar  
     2     1     6 ar  
     3     2     7 ar  
     4     2     8 ar  
     5     3    11 ar  
     6     3    13 ar  
     7     4    12 ar  
     8     4    14 ar  
     9     5     8 ar  
    10     5    12 ar  
    11     6     7 ar  
    12     6    15 1   
    13     7    16 1   
    14     8     9 ar  
    15     9    10 ar  
    16     9    17 1   
    17    10    11 ar  
    18    10    18 1   
    19    11    12 ar  
    20    13    14 ar  
    21    13    19 1   
    22    14    20 1   
@<TRIPOS>SUBSTRUCTURE
     1 RKT         1 TEMP              0 ****  ****    0 ROOT
