@<TRIPOS>MOLECULE
RKU
   37    39     1     0     0
SMALL
abcg2


@<TRIPOS>ATOM
      1 C17        -46.6330   -29.6270     5.3480 cc         1 RKU       0.427700
      2 C15        -47.3700   -29.3850     3.3450 ca         1 RKU       0.073400
      3 C14        -47.5680   -29.3610     1.9550 ca         1 RKU      -0.042600
      4 C13        -46.5920   -29.8610     0.9330 c          1 RKU       0.592700
      5 C11        -44.3500   -32.6620    -1.3970 ca         1 RKU      -0.083500
      6 C10        -44.6400   -33.8920    -1.9750 ca         1 RKU      -0.093500
      7 C20        -49.5660   -28.3400     3.7570 ca         1 RKU      -0.156000
      8 C19        -48.3670   -28.8770     4.2110 ca         1 RKU      -0.074200
      9 C03        -43.0930   -31.0480     1.1190 c3         1 RKU      -0.214400
     10 C04        -44.4790   -30.9690     0.4560 c3         1 RKU       0.175000
     11 C05        -44.8690   -32.3060    -0.1530 ca         1 RKU      -0.038300
     12 C06        -45.6940   -33.2100     0.5090 ca         1 RKU      -0.083500
     13 C07        -45.9980   -34.4470    -0.0510 ca         1 RKU      -0.093500
     14 C08        -45.4640   -34.7730    -1.2890 ca         1 RKU      -0.011900
     15 C21        -49.7160   -28.3350     2.3850 ca         1 RKU       0.162000
     16 C23        -48.7660   -28.8240     1.4940 ca         1 RKU      -0.127000
     17 F22        -50.8610   -27.8210     1.8660 f          1 RKU      -0.193000
     18 N12        -45.4740   -30.4550     1.3840 ns         1 RKU      -0.460900
     19 N16        -46.3000   -29.8430     4.0980 nd         1 RKU      -0.531100
     20 N18        -47.8600   -29.0500     5.4780 na         1 RKU      -0.333600
     21 O01        -43.8350   -32.0920     3.1280 o          1 RKU      -0.734000
     22 O24        -46.8240   -29.7190    -0.2740 o          1 RKU      -0.653100
     23 O25        -42.0310   -32.9510     2.1110 o          1 RKU      -0.734000
     24 BR09       -45.8820   -36.4720    -2.0770 br         1 RKU      -0.168100
     25 H171       -46.0270   -29.8670     6.2080 h5         1 RKU       0.070800
     26 H111       -43.7120   -31.9670    -1.9310 ha         1 RKU       0.122500
     27 H101       -44.2340   -34.1550    -2.9420 ha         1 RKU       0.113500
     28 H201       -50.3320   -27.9520     4.4140 ha         1 RKU       0.126000
     29 H032       -42.3570   -31.2380     0.3390 hc         1 RKU       0.036700
     30 H031       -42.8690   -30.0730     1.5630 hc         1 RKU       0.036700
     31 H041       -44.4110   -30.2520    -0.3620 h1         1 RKU       0.044700
     32 H061       -46.1070   -32.9520     1.4750 ha         1 RKU       0.122500
     33 H071       -46.6410   -35.1420     0.4720 ha         1 RKU       0.113500
     34 H231       -48.9600   -28.7850     0.4320 ha         1 RKU       0.156000
     35 H121       -45.3310   -30.6200     2.3770 hn         1 RKU       0.390500
     36 H181       -48.3080   -28.7950     6.3450 hn         1 RKU       0.351000
     37 C02        -42.9730   -32.1260     2.2100 c          1 RKU       0.707000
@<TRIPOS>BOND
     1     1    19 2   
     2     1    20 1   
     3     1    25 1   
     4     2     3 ar  
     5     2     8 ar  
     6     2    19 1   
     7     3     4 1   
     8     3    16 ar  
     9     4    18 1   
    10     4    22 2   
    11     5     6 ar  
    12     5    11 ar  
    13     5    26 1   
    14     6    14 ar  
    15     6    27 1   
    16     7     8 ar  
    17     7    15 ar  
    18     7    28 1   
    19     8    20 1   
    20     9    10 1   
    21     9    29 1   
    22     9    30 1   
    23     9    37 1   
    24    10    11 1   
    25    10    18 1   
    26    10    31 1   
    27    11    12 ar  
    28    12    13 ar  
    29    12    32 1   
    30    13    14 ar  
    31    13    33 1   
    32    14    24 1   
    33    15    16 ar  
    34    15    17 1   
    35    16    34 1   
    36    18    35 1   
    37    20    36 1   
    38    21    37 1   
    39    23    37 1   
@<TRIPOS>SUBSTRUCTURE
     1 RKU         1 TEMP              0 ****  ****    0 ROOT
