@<TRIPOS>MOLECULE
RKU
   37    39     1     0     0
SMALL
No Charge or Current Charge


@<TRIPOS>ATOM
      1 C17        -48.0770   -31.5250     4.2500 cc         1 RKU       0.427700
      2 C15        -47.7380   -29.7800     2.9920 ca         1 RKU       0.073400
      3 C14        -47.3040   -28.8550     2.0080 ca         1 RKU      -0.042600
      4 C13        -46.2930   -29.1910     0.9260 c          1 RKU       0.592700
      5 C11        -44.8220   -33.1470    -1.3150 ca         1 RKU      -0.083500
      6 C10        -44.9100   -34.5470    -1.4200 ca         1 RKU      -0.093500
      7 C20        -49.2180   -28.1350     4.0120 ca         1 RKU      -0.156000
      8 C19        -48.6550   -29.4120     3.9410 ca         1 RKU      -0.074200
      9 C03        -43.3300   -30.4810     0.3320 c3         1 RKU      -0.214400
     10 C04        -44.7630   -30.9940     0.0370 c3         1 RKU       0.175000
     11 C05        -44.8480   -32.5210    -0.0510 ca         1 RKU      -0.038300
     12 C06        -44.9630   -33.3210     1.1070 ca         1 RKU      -0.083500
     13 C07        -45.0510   -34.7200     1.0010 ca         1 RKU      -0.093500
     14 C08        -45.0260   -35.3310    -0.2620 ca         1 RKU      -0.011900
     15 C21        -48.8080   -27.1980     3.0500 ca         1 RKU       0.162000
     16 C23        -47.8650   -27.5490     2.0600 ca         1 RKU      -0.127000
     17 F22        -49.3220   -25.9490     3.0720 f          1 RKU      -0.193000
     18 N12        -45.7670   -30.4580     0.9540 ns         1 RKU      -0.460900
     19 N16        -47.3670   -31.1160     3.1780 nd         1 RKU      -0.531100
     20 N18        -48.8740   -30.4940     4.7330 na         1 RKU      -0.333600
     21 O01        -43.1680   -29.8470     2.6120 o          1 RKU      -0.734000
     22 O24        -45.9700   -28.3850     0.0610 o          1 RKU      -0.653100
     23 O25        -42.3200   -31.7460     2.0620 o          1 RKU      -0.734000
     24 Br09       -45.1460   -37.2330    -0.4050 br         1 RKU      -0.168100
     25 H171       -48.0570   -32.5100     4.7000 h5         1 RKU       0.070800
     26 H111       -44.7330   -32.5490    -2.2190 ha         1 RKU       0.122500
     27 H101       -44.8900   -35.0200    -2.3990 ha         1 RKU       0.113500
     28 H201       -49.9450   -27.8740     4.7780 ha         1 RKU       0.126000
     29 H032       -42.6700   -31.0320    -0.3490 hc         1 RKU       0.036700
     30 H031       -43.3610   -29.4050     0.1280 hc         1 RKU       0.036700
     31 H041       -45.0260   -30.6140    -0.9590 h1         1 RKU       0.044700
     32 H061       -44.9770   -32.8640     2.0940 ha         1 RKU       0.122500
     33 H071       -45.1380   -35.3270     1.8990 ha         1 RKU       0.113500
     34 H231       -47.5700   -26.7990     1.3310 ha         1 RKU       0.156000
     35 H121       -46.1150   -31.0480     1.7030 hn         1 RKU       0.390500
     36 H181       -49.4970   -30.5540     5.5290 hn         1 RKU       0.351000
     37 C02        -42.9120   -30.7130     1.7900 c          1 RKU       0.707000
@<TRIPOS>BOND
     1     1    19 2   
     2     1    20 1   
     3     1    25 1   
     4     2     3 ar  
     5     2     8 ar  
     6     2    19 1   
     7     3     4 1   
     8     3    16 ar  
     9     4    18 1   
    10     4    22 2   
    11     5     6 ar  
    12     5    11 ar  
    13     5    26 1   
    14     6    14 ar  
    15     6    27 1   
    16     7     8 ar  
    17     7    15 ar  
    18     7    28 1   
    19     8    20 1   
    20     9    10 1   
    21     9    29 1   
    22     9    30 1   
    23     9    37 1   
    24    10    11 1   
    25    10    18 1   
    26    10    31 1   
    27    11    12 ar  
    28    12    13 ar  
    29    12    32 1   
    30    13    14 ar  
    31    13    33 1   
    32    14    24 1   
    33    15    16 ar  
    34    15    17 1   
    35    16    34 1   
    36    18    35 1   
    37    20    36 1   
    38    21    37 1   
    39    23    37 1   
@<TRIPOS>SUBSTRUCTURE
     1 RKU         1 TEMP              0 ****  ****    0 ROOT
