@<TRIPOS>MOLECULE
RKV
   21    22     1     0     0
SMALL
No Charge or Current Charge


@<TRIPOS>ATOM
      1 C10         68.9650    81.6460    27.7490 cc         1 RKV      -0.209000
      2 C01         68.2830    77.1840    26.4790 cc         1 RKV       0.088900
      3 C02         67.1220    77.7620    26.9240 cd         1 RKV      -0.186000
      4 C03         67.4240    79.0930    27.2810 cd         1 RKV      -0.210000
      5 C04         68.7610    79.2660    27.0360 cc         1 RKV       0.167000
      6 O05         69.3090    78.1010    26.5420 os         1 RKV      -0.237000
      7 C06         69.5410    80.4670    27.2440 cc         1 RKV       0.163000
      8 N07         70.8320    80.6010    26.9970 nd         1 RKV      -0.555800
      9 N08         71.0950    81.9200    27.3590 na         1 RKV       0.146800
     10 C09         69.9530    82.5870    27.8280 cd         1 RKV      -0.168600
     11 C11         69.7960    83.9890    28.3100 c          1 RKV       0.729600
     12 O12         68.6890    84.3580    28.6760 o          1 RKV      -0.710000
     13 O13         70.7730    84.7230    28.3250 o          1 RKV      -0.710000
     14 C14         72.4560    82.4700    27.2290 c3         1 RKV       0.092900
     15 H1          67.9240    81.7770    28.0250 ha         1 RKV       0.146000
     16 H4          66.7310    79.8310    27.6710 ha         1 RKV       0.140000
     17 H6          73.1350    81.7060    26.8340 h1         1 RKV       0.050700
     18 H7          72.4400    83.3260    26.5450 h1         1 RKV       0.050700
     19 H8          72.8140    82.7950    28.2130 h1         1 RKV       0.050700
     20 H2          68.5080    76.1920    26.1130 h4         1 RKV       0.035100
     21 H3          66.1530    77.2770    26.9870 ha         1 RKV       0.123000
@<TRIPOS>BOND
     1     1     7 1   
     2     1    10 2   
     3     1    15 1   
     4     2     3 2   
     5     2     6 1   
     6     2    20 1   
     7     3     4 1   
     8     3    21 1   
     9     4     5 2   
    10     4    16 1   
    11     5     6 1   
    12     5     7 1   
    13     7     8 2   
    14     8     9 1   
    15     9    10 1   
    16     9    14 1   
    17    10    11 1   
    18    11    12 1   
    19    11    13 1   
    20    14    17 1   
    21    14    18 1   
    22    14    19 1   
@<TRIPOS>SUBSTRUCTURE
     1 RKV         1 TEMP              0 ****  ****    0 ROOT
