@<TRIPOS>MOLECULE
RKV
   21    22     1     0     0
SMALL
abcg2


@<TRIPOS>ATOM
      1 C10         68.8520    81.7780    27.8080 cc         1 RKV      -0.209000
      2 C01         68.4350    77.2270    26.4740 cc         1 RKV       0.088900
      3 C02         67.2010    77.6260    26.8710 cd         1 RKV      -0.186000
      4 C03         67.3290    78.9920    27.2730 cd         1 RKV      -0.210000
      5 C04         68.6380    79.3330    27.0920 cc         1 RKV       0.167000
      6 O05         69.3260    78.2550    26.6020 os         1 RKV      -0.237000
      7 C06         69.3620    80.5640    27.3170 cc         1 RKV       0.163000
      8 N07         70.6740    80.6750    27.0580 nd         1 RKV      -0.555800
      9 N08         71.0000    81.9390    27.3820 na         1 RKV       0.146800
     10 C09         69.9290    82.6470    27.8420 cd         1 RKV      -0.168600
     11 C11         69.9590    84.0880    28.2990 c          1 RKV       0.729600
     12 O12         68.8410    84.5880    28.5760 o          1 RKV      -0.710000
     13 O13         71.0780    84.6500    28.3670 o          1 RKV      -0.710000
     14 C14         72.3800    82.3620    27.2060 c3         1 RKV       0.092900
     15 H1          67.8420    82.0050    28.1020 ha         1 RKV       0.146000
     16 H4          66.5510    79.6380    27.6460 ha         1 RKV       0.140000
     17 H6          72.8990    81.5460    26.7110 h1         1 RKV       0.050700
     18 H7          72.4250    83.2620    26.5990 h1         1 RKV       0.050700
     19 H8          72.8430    82.5680    28.1700 h1         1 RKV       0.050700
     20 H2          68.8340    76.3020    26.0940 h4         1 RKV       0.035100
     21 H3          66.3070    77.0240    26.8780 ha         1 RKV       0.123000
@<TRIPOS>BOND
     1     1     7 1   
     2     1    10 2   
     3     1    15 1   
     4     2     3 2   
     5     2     6 1   
     6     2    20 1   
     7     3     4 1   
     8     3    21 1   
     9     4     5 2   
    10     4    16 1   
    11     5     6 1   
    12     5     7 1   
    13     7     8 2   
    14     8     9 1   
    15     9    10 1   
    16     9    14 1   
    17    10    11 1   
    18    11    12 1   
    19    11    13 1   
    20    14    17 1   
    21    14    18 1   
    22    14    19 1   
@<TRIPOS>SUBSTRUCTURE
     1 RKV         1 TEMP              0 ****  ****    0 ROOT
