@<TRIPOS>MOLECULE
RKW
   38    40     1     0     0
SMALL
No Charge or Current Charge


@<TRIPOS>ATOM
      1 C1         -15.0630    25.1840   -23.7680 c3         1 RKW       0.143100
      2 N1         -14.4210    25.1180   -25.0990 n7         1 RKW      -0.851400
      3 O1         -16.9050    24.7970   -26.6420 o          1 RKW      -0.585100
      4 C2         -14.9130    26.1190   -26.1080 c3         1 RKW       0.086800
      5 N2         -17.0040    27.0560   -27.0280 ns         1 RKW      -0.322900
      6 O2         -25.0160    23.1170   -27.8460 os         1 RKW      -0.171200
      7 C3         -16.3760    25.9030   -26.6120 c          1 RKW       0.570100
      8 N3         -18.3970    28.5100   -28.0390 nb         1 RKW      -0.813000
      9 C4         -18.2950    27.2760   -27.5200 ca         1 RKW       0.522900
     10 C5         -19.5730    28.8400   -28.5370 ca         1 RKW       0.631900
     11 C6         -20.6980    28.0200   -28.5700 ca         1 RKW      -0.254000
     12 C7         -20.6170    26.7220   -28.0230 cp         1 RKW       0.069000
     13 C8         -19.3620    26.3590   -27.4830 ca         1 RKW      -0.227000
     14 C9         -21.7880    25.7890   -28.0130 cp         1 RKW      -0.069000
     15 C10        -22.7580    25.8150   -29.0650 ca         1 RKW      -0.077000
     16 C11        -23.8690    24.9410   -29.0700 ca         1 RKW      -0.109000
     17 C12        -24.0010    24.0390   -28.0090 ca         1 RKW       0.063100
     18 C13        -24.7090    22.4620   -26.6490 cc         1 RKW      -0.071900
     19 C14        -23.5430    22.9820   -26.1180 cd         1 RKW      -0.232200
     20 C15        -23.0810    24.0040   -26.9990 ca         1 RKW      -0.117800
     21 C16        -21.9680    24.8510   -26.9560 ca         1 RKW      -0.034000
     22 H1         -14.6300    24.4330   -23.0930 h1         1 RKW       0.035700
     23 H2         -14.9200    26.1730   -23.3120 h1         1 RKW       0.035700
     24 H3         -16.1430    24.9920   -23.8390 h1         1 RKW       0.035700
     25 H4         -14.5810    24.1740   -25.4830 hn         1 RKW       0.432000
     26 H6         -14.2770    26.1040   -27.0040 h1         1 RKW       0.070700
     27 H7         -14.8510    27.1360   -25.6970 h1         1 RKW       0.070700
     28 H8         -16.4440    27.8950   -26.9840 hn         1 RKW       0.164000
     29 H9         -18.6080    30.4480   -29.1390 hn         1 RKW       0.472500
     30 H10        -20.2150    30.3120   -29.7430 hn         1 RKW       0.472500
     31 H11        -21.6240    28.3930   -28.9940 ha         1 RKW       0.125000
     32 H12        -19.2270    25.3770   -27.0500 ha         1 RKW       0.158000
     33 H13        -22.6410    26.5110   -29.8920 ha         1 RKW       0.117000
     34 H14        -24.5990    24.9660   -29.8740 ha         1 RKW       0.131000
     35 H15        -25.3820    21.6790   -26.3090 h4         1 RKW       0.238000
     36 H16        -23.0710    22.6610   -25.1920 ha         1 RKW       0.216000
     37 H17        -21.2710    24.7950   -26.1240 ha         1 RKW       0.130000
     38 N4         -19.5420    30.0770   -29.0230 nv         1 RKW      -1.058900
@<TRIPOS>BOND
     1     1     2 1   
     2     1    22 1   
     3     1    23 1   
     4     1    24 1   
     5     2     4 1   
     6     2    25 1   
     7     3     7 2   
     8     4     7 1   
     9     4    26 1   
    10     4    27 1   
    11     5     7 1   
    12     5     9 1   
    13     5    28 1   
    14     6    17 1   
    15     6    18 1   
    16     8     9 ar  
    17     8    10 ar  
    18     9    13 ar  
    19    10    11 ar  
    20    10    38 1   
    21    11    12 ar  
    22    11    31 1   
    23    12    13 ar  
    24    12    14 1   
    25    13    32 1   
    26    14    15 ar  
    27    14    21 ar  
    28    15    16 ar  
    29    15    33 1   
    30    16    17 ar  
    31    16    34 1   
    32    17    20 ar  
    33    18    19 2   
    34    18    35 1   
    35    19    20 1   
    36    19    36 1   
    37    20    21 ar  
    38    21    37 1   
    39    29    38 1   
    40    30    38 1   
@<TRIPOS>SUBSTRUCTURE
     1 RKW         1 TEMP              0 ****  ****    0 ROOT
