@<TRIPOS>MOLECULE
RKW
   38    40     1     0     0
SMALL
abcg2


@<TRIPOS>ATOM
      1 C1         -15.0290    25.2170   -23.8320 c3         1 RKW       0.143100
      2 N1         -14.5370    25.0290   -25.1830 n7         1 RKW      -0.851400
      3 O1         -17.1480    24.8620   -26.2620 o          1 RKW      -0.585100
      4 C2         -15.0280    25.9910   -26.1270 c3         1 RKW       0.086800
      5 N2         -17.0340    27.0070   -27.0220 ns         1 RKW      -0.322900
      6 O2         -24.8500    23.1520   -27.8800 os         1 RKW      -0.171200
      7 C3         -16.5170    25.8830   -26.4570 c          1 RKW       0.570100
      8 N3         -18.4380    28.4810   -28.0070 nb         1 RKW      -0.813000
      9 C4         -18.3150    27.2540   -27.5120 ca         1 RKW       0.522900
     10 C5         -19.6100    28.8570   -28.5090 ca         1 RKW       0.631900
     11 C6         -20.7210    28.0000   -28.5340 ca         1 RKW      -0.254000
     12 C7         -20.5820    26.7230   -28.0210 cp         1 RKW       0.069000
     13 C8         -19.3480    26.3270   -27.4930 ca         1 RKW      -0.227000
     14 C9         -21.7210    25.7810   -28.0180 cp         1 RKW      -0.069000
     15 C10        -22.6190    25.7580   -29.1030 ca         1 RKW      -0.077000
     16 C11        -23.7030    24.8990   -29.1430 ca         1 RKW      -0.109000
     17 C12        -23.8680    24.0610   -28.0550 ca         1 RKW       0.063100
     18 C13        -24.6190    22.5580   -26.6800 cc         1 RKW      -0.071900
     19 C14        -23.5240    23.0520   -26.0700 cd         1 RKW      -0.232200
     20 C15        -23.0010    24.0520   -26.9610 ca         1 RKW      -0.117800
     21 C16        -21.9140    24.9210   -26.9440 ca         1 RKW      -0.034000
     22 H1         -14.6100    24.4470   -23.1850 h1         1 RKW       0.035700
     23 H2         -14.6890    26.1820   -23.4510 h1         1 RKW       0.035700
     24 H3         -16.1200    25.1840   -23.7250 h1         1 RKW       0.035700
     25 H4         -14.7460    24.0920   -25.5030 hn         1 RKW       0.432000
     26 H6         -14.4880    25.8800   -27.0750 h1         1 RKW       0.070700
     27 H7         -14.7980    26.9980   -25.7680 h1         1 RKW       0.070700
     28 H8         -16.4140    27.7990   -27.1260 hn         1 RKW       0.164000
     29 H9         -18.8400    30.6170   -29.1470 hn         1 RKW       0.472500
     30 H10        -20.4550    30.3620   -29.5900 hn         1 RKW       0.472500
     31 H11        -21.6660    28.3520   -28.9270 ha         1 RKW       0.125000
     32 H12        -19.2020    25.3320   -27.1100 ha         1 RKW       0.158000
     33 H13        -22.4470    26.4150   -29.9450 ha         1 RKW       0.117000
     34 H14        -24.3770    24.8850   -29.9890 ha         1 RKW       0.131000
     35 H15        -25.3240    21.7940   -26.3890 h4         1 RKW       0.238000
     36 H16        -23.1320    22.7470   -25.1140 ha         1 RKW       0.216000
     37 H17        -21.2440    24.9370   -26.0930 ha         1 RKW       0.130000
     38 N4         -19.7050    30.1390   -28.9570 nv         1 RKW      -1.058900
@<TRIPOS>BOND
     1     1     2 1   
     2     1    22 1   
     3     1    23 1   
     4     1    24 1   
     5     2     4 1   
     6     2    25 1   
     7     3     7 2   
     8     4     7 1   
     9     4    26 1   
    10     4    27 1   
    11     5     7 1   
    12     5     9 1   
    13     5    28 1   
    14     6    17 1   
    15     6    18 1   
    16     8     9 ar  
    17     8    10 ar  
    18     9    13 ar  
    19    10    11 ar  
    20    10    38 1   
    21    11    12 ar  
    22    11    31 1   
    23    12    13 ar  
    24    12    14 1   
    25    13    32 1   
    26    14    15 ar  
    27    14    21 ar  
    28    15    16 ar  
    29    15    33 1   
    30    16    17 ar  
    31    16    34 1   
    32    17    20 ar  
    33    18    19 2   
    34    18    35 1   
    35    19    20 1   
    36    19    36 1   
    37    20    21 ar  
    38    21    37 1   
    39    29    38 1   
    40    30    38 1   
@<TRIPOS>SUBSTRUCTURE
     1 RKW         1 TEMP              0 ****  ****    0 ROOT
