@<TRIPOS>MOLECULE
RKX
   21    21     1     0     0
SMALL
No Charge or Current Charge


@<TRIPOS>ATOM
      1 C1          26.3500    46.9940    20.0890 c3         1 RKX       0.148900
      2 O1          26.3780    45.5570    20.0070 os         1 RKX      -0.347100
      3 C2          26.0540    44.8800    18.8490 ca         1 RKX       0.152100
      4 C3          25.6660    45.5380    17.6630 ca         1 RKX      -0.173500
      5 C4          25.3450    44.7940    16.5140 ca         1 RKX      -0.051000
      6 C5          25.4210    43.3810    16.5220 ca         1 RKX      -0.233900
      7 C6          25.7910    42.7330    17.7230 ca         1 RKX      -0.051000
      8 C7          26.1100    43.4790    18.8700 ca         1 RKX      -0.173500
      9 C8          25.0410    42.5900    15.3160 ce         1 RKX       0.668800
     10 N1          24.2840    43.0300    14.4000 n2         1 RKX      -0.850100
     11 N2          25.6750    41.4250    15.1080 nv         1 RKX      -1.042200
     12 H1          26.6420    47.3230    21.0940 h1         1 RKX       0.044033
     13 H2          27.0480    47.4400    19.3690 h1         1 RKX       0.044033
     14 H3          25.3410    47.3760    19.8860 h1         1 RKX       0.044033
     15 H4          25.6070    46.6210    17.6140 ha         1 RKX       0.125500
     16 H5          25.0550    45.3280    15.6110 ha         1 RKX       0.120500
     17 H6          25.8240    41.6460    17.7780 ha         1 RKX       0.120500
     18 H7          26.3970    42.9670    19.7850 ha         1 RKX       0.125500
     19 H8          23.8590    43.9010    14.7420 hn         1 RKX       0.383400
     20 H9          26.5700    41.3390    15.5740 hn         1 RKX       0.473000
     21 H10         25.6460    41.1080    14.1470 hn         1 RKX       0.473000
@<TRIPOS>BOND
     1     1     2 1   
     2     1    12 1   
     3     1    13 1   
     4     1    14 1   
     5     2     3 1   
     6     3     4 ar  
     7     3     8 ar  
     8     4     5 ar  
     9     4    15 1   
    10     5     6 ar  
    11     5    16 1   
    12     6     7 ar  
    13     6     9 1   
    14     7     8 ar  
    15     7    17 1   
    16     8    18 1   
    17     9    10 2   
    18     9    11 1   
    19    10    19 1   
    20    11    20 1   
    21    11    21 1   
@<TRIPOS>SUBSTRUCTURE
     1 RKX         1 TEMP              0 ****  ****    0 ROOT
