@<TRIPOS>MOLECULE
RKX
   21    21     1     0     0
SMALL
abcg2


@<TRIPOS>ATOM
      1 C1          26.3110    46.9440    20.0520 c3         1 RKX       0.148900
      2 O1          26.3770    45.5180    20.0050 os         1 RKX      -0.347100
      3 C2          26.0640    44.8960    18.8410 ca         1 RKX       0.152100
      4 C3          25.7030    45.5600    17.6660 ca         1 RKX      -0.173500
      5 C4          25.3930    44.8230    16.5300 ca         1 RKX      -0.051000
      6 C5          25.4400    43.4300    16.5290 ca         1 RKX      -0.233900
      7 C6          25.8170    42.7800    17.7110 ca         1 RKX      -0.051000
      8 C7          26.1200    43.4990    18.8530 ca         1 RKX      -0.173500
      9 C8          25.0790    42.6670    15.3020 ce         1 RKX       0.668800
     10 N1          24.2100    43.0480    14.4290 n2         1 RKX      -0.850100
     11 N2          25.7080    41.4620    15.1510 nv         1 RKX      -1.042200
     12 H1          26.5790    47.2200    21.0690 h1         1 RKX       0.044033
     13 H2          27.0190    47.3920    19.3510 h1         1 RKX       0.044033
     14 H3          25.3020    47.2970    19.8280 h1         1 RKX       0.044033
     15 H4          25.6660    46.6390    17.6250 ha         1 RKX       0.125500
     16 H5          25.1270    45.3530    15.6240 ha         1 RKX       0.120500
     17 H6          25.8530    41.7000    17.7470 ha         1 RKX       0.120500
     18 H7          26.3950    42.9930    19.7690 ha         1 RKX       0.125500
     19 H8          23.7600    43.9080    14.7300 hn         1 RKX       0.383400
     20 H9          26.6100    41.3290    15.5780 hn         1 RKX       0.473000
     21 H10         25.5710    40.9910    14.2690 hn         1 RKX       0.473000
@<TRIPOS>BOND
     1     1     2 1   
     2     1    12 1   
     3     1    13 1   
     4     1    14 1   
     5     2     3 1   
     6     3     4 ar  
     7     3     8 ar  
     8     4     5 ar  
     9     4    15 1   
    10     5     6 ar  
    11     5    16 1   
    12     6     7 ar  
    13     6     9 1   
    14     7     8 ar  
    15     7    17 1   
    16     8    18 1   
    17     9    10 2   
    18     9    11 1   
    19    10    19 1   
    20    11    20 1   
    21    11    21 1   
@<TRIPOS>SUBSTRUCTURE
     1 RKX         1 TEMP              0 ****  ****    0 ROOT
