@<TRIPOS>MOLECULE
RKY
   31    32     1     0     0
SMALL
No Charge or Current Charge


@<TRIPOS>ATOM
      1 C10         10.8660     6.5860    28.6950 ca         1 RKY      -0.138000
      2 C13          7.7590     6.0360    26.9030 c3         1 RKY       0.165600
      3 C15          8.1960     8.3520    25.8030 c3         1 RKY       0.163600
      4 C17          9.3090     8.3200    27.9820 ca         1 RKY       0.039100
      5 O01         13.1260    11.0410    28.1150 o          1 RKY      -0.739000
      6 C02         13.9920    10.5400    28.8140 c          1 RKY       0.723000
      7 O03         14.8590     9.7920    28.3910 o          1 RKY      -0.739000
      8 C04         13.9420    10.8120    30.3280 c3         1 RKY      -0.207400
      9 C05         13.0880     9.7350    31.0570 c3         1 RKY      -0.129400
     10 O07         10.8860    10.6890    31.1620 o          1 RKY      -0.522100
     11 C08         10.9890     8.8110    29.7060 ca         1 RKY      -0.138600
     12 C09         11.4670     7.4850    29.5920 ca         1 RKY      -0.068000
     13 C11          9.7820     6.9840    27.8990 ca         1 RKY       0.069100
     14 O12          9.1810     6.0190    27.1150 os         1 RKY      -0.357100
     15 C14          7.4100     7.0290    25.7800 c3         1 RKY      -0.134400
     16 O16          8.3210     8.8210    27.1570 os         1 RKY      -0.352100
     17 C18          9.9010     9.2090    28.8960 ca         1 RKY      -0.062000
     18 H1          11.2260     5.5610    28.6400 ha         1 RKY       0.115000
     19 H2           7.2390     6.3200    27.8290 h1         1 RKY       0.050700
     20 H3           7.4020     5.0380    26.6170 h1         1 RKY       0.050700
     21 H4           9.1890     8.2060    25.3580 h1         1 RKY       0.055700
     22 H5           7.6640     9.0900    25.1890 h1         1 RKY       0.055700
     23 H7          14.9480    10.7240    30.7580 hc         1 RKY       0.027200
     24 H8          13.4630    11.7770    30.5340 hc         1 RKY       0.027200
     25 H9          13.1780     9.9090    32.1360 hc         1 RKY       0.034700
     26 H10         13.5180     8.7610    30.8100 hc         1 RKY       0.034700
     27 H11         12.2800     7.1230    30.2150 ha         1 RKY       0.123000
     28 H12          6.3380     7.2490    25.8330 hc         1 RKY       0.048700
     29 H13          7.5770     6.5440    24.8110 hc         1 RKY       0.048700
     30 H14          9.5290    10.2290    28.9490 ha         1 RKY       0.147000
     31 C06         11.5910     9.8140    30.6710 c          1 RKY       0.606700
@<TRIPOS>BOND
     1     1    12 ar  
     2     1    13 ar  
     3     1    18 1   
     4     2    14 1   
     5     2    15 1   
     6     2    19 1   
     7     2    20 1   
     8     3    15 1   
     9     3    16 1   
    10     3    21 1   
    11     3    22 1   
    12     4    13 ar  
    13     4    16 1   
    14     4    17 ar  
    15     5     6 1   
    16     6     7 1   
    17     6     8 1   
    18     8     9 1   
    19     8    23 1   
    20     8    24 1   
    21     9    25 1   
    22     9    26 1   
    23     9    31 1   
    24    10    31 2   
    25    11    12 ar  
    26    11    17 ar  
    27    11    31 1   
    28    12    27 1   
    29    13    14 1   
    30    15    28 1   
    31    15    29 1   
    32    17    30 1   
@<TRIPOS>SUBSTRUCTURE
     1 RKY         1 TEMP              0 ****  ****    0 ROOT
