@<TRIPOS>MOLECULE
RKY
   31    32     1     0     0
SMALL
abcg2


@<TRIPOS>ATOM
      1 C10         10.7540     6.5540    28.6250 ca         1 RKY      -0.138000
      2 C13          7.5600     5.9520    27.1740 c3         1 RKY       0.165600
      3 C15          8.0040     7.9480    25.7240 c3         1 RKY       0.163600
      4 C17          9.2780     8.2220    27.7030 ca         1 RKY       0.039100
      5 O01         15.2060    12.4980    29.8200 o          1 RKY      -0.739000
      6 C02         14.5500    11.4490    29.6630 c          1 RKY       0.723000
      7 O03         14.3500    10.8440    28.5910 o          1 RKY      -0.739000
      8 C04         13.9430    10.8350    30.9410 c3         1 RKY      -0.207400
      9 C05         13.0560     9.6360    30.6740 c3         1 RKY      -0.129400
     10 O07         11.3860    11.1040    29.8310 o          1 RKY      -0.522100
     11 C08         11.1110     8.8740    29.1590 ca         1 RKY      -0.138600
     12 C09         11.4880     7.5370    29.2620 ca         1 RKY      -0.068000
     13 C11          9.6400     6.8710    27.8540 ca         1 RKY       0.069100
     14 O12          8.9790     5.8430    27.2810 os         1 RKY      -0.357100
     15 C14          7.1440     6.7130    25.9280 c3         1 RKY      -0.134400
     16 O16          8.2330     8.6400    26.9480 os         1 RKY      -0.352100
     17 C18         10.0090     9.1940    28.3660 ca         1 RKY      -0.062000
     18 H1          11.0310     5.5120    28.7300 ha         1 RKY       0.115000
     19 H2           7.1540     6.4180    28.0760 h1         1 RKY       0.050700
     20 H3           7.1830     4.9300    27.1430 h1         1 RKY       0.050700
     21 H4           8.9590     7.6880    25.2570 h1         1 RKY       0.055700
     22 H5           7.5060     8.6560    25.0620 h1         1 RKY       0.055700
     23 H7          14.7630    10.5270    31.5990 hc         1 RKY       0.027200
     24 H8          13.4030    11.6070    31.4930 hc         1 RKY       0.027200
     25 H9          12.7010     9.1980    31.6160 hc         1 RKY       0.034700
     26 H10         13.6300     8.8510    30.1820 hc         1 RKY       0.034700
     27 H11         12.3380     7.2390    29.8600 ha         1 RKY       0.123000
     28 H12          6.0900     6.9830    26.0300 hc         1 RKY       0.048700
     29 H13          7.2270     6.0840    25.0400 hc         1 RKY       0.048700
     30 H14          9.7090    10.2280    28.2490 ha         1 RKY       0.147000
     31 C06         11.8290     9.9730    29.8660 c          1 RKY       0.606700
@<TRIPOS>BOND
     1     1    12 ar  
     2     1    13 ar  
     3     1    18 1   
     4     2    14 1   
     5     2    15 1   
     6     2    19 1   
     7     2    20 1   
     8     3    15 1   
     9     3    16 1   
    10     3    21 1   
    11     3    22 1   
    12     4    13 ar  
    13     4    16 1   
    14     4    17 ar  
    15     5     6 1   
    16     6     7 1   
    17     6     8 1   
    18     8     9 1   
    19     8    23 1   
    20     8    24 1   
    21     9    25 1   
    22     9    26 1   
    23     9    31 1   
    24    10    31 2   
    25    11    12 ar  
    26    11    17 ar  
    27    11    31 1   
    28    12    27 1   
    29    13    14 1   
    30    15    28 1   
    31    15    29 1   
    32    17    30 1   
@<TRIPOS>SUBSTRUCTURE
     1 RKY         1 TEMP              0 ****  ****    0 ROOT
