@<TRIPOS>MOLECULE
RKZ
   50    53     1     0     0
SMALL
No Charge or Current Charge


@<TRIPOS>ATOM
      1 C1          -5.1880     2.5170    28.7390 c3         1 RKZ      -0.099100
      2 N1          -6.6330    -0.3130    29.0880 na         1 RKZ      -0.283300
      3 O1          -3.8810     0.6650    29.4860 os         1 RKZ      -0.339100
      4 C2          -4.6350     1.1320    28.3470 c3         1 RKZ       0.164300
      5 N2          -8.2840    -0.3110    30.7040 nc         1 RKZ      -0.571100
      6 C3          -5.7420     0.0980    27.9770 c3         1 RKZ       0.060600
      7 N3          -5.5080    -2.3910    29.7830 nb         1 RKZ      -0.659000
      8 C4          -7.7870     0.2950    29.6130 cd         1 RKZ       0.432800
      9 N4          -2.0720    -5.9890    28.2540 nv         1 RKZ      -1.057900
     10 C5          -8.4600     1.5110    29.0370 c3         1 RKZ      -0.116400
     11 N5          -2.3890    -6.4300    30.3660 nb         1 RKZ      -0.810000
     12 C6          -7.4100    -1.3770    30.8480 ca         1 RKZ       0.037400
     13 N6          -2.5790    -7.0010    32.4610 nv         1 RKZ      -1.057900
     14 C7          -7.4560    -2.3770    31.8270 ca         1 RKZ      -0.023000
     15 C8          -6.4750    -3.3840    31.7630 ca         1 RKZ      -0.170000
     16 C9          -5.5000    -3.3660    30.7250 cp         1 RKZ       0.417500
     17 C10         -6.4290    -1.4120    29.8780 ca         1 RKZ       0.354500
     18 C11         -4.4280    -4.4230    30.6040 cp         1 RKZ      -0.034500
     19 C12         -3.7350    -4.6760    29.3910 ca         1 RKZ      -0.257000
     20 C13         -2.7520    -5.6660    29.3520 ca         1 RKZ       0.628400
     21 C14         -3.0260    -6.1980    31.4980 ca         1 RKZ       0.628400
     22 C15         -4.0250    -5.2400    31.6920 ca         1 RKZ      -0.257000
     23 C16         -2.9780    -0.3800    29.4300 ca         1 RKZ       0.156100
     24 C17         -2.4820    -0.8740    30.6490 ca         1 RKZ      -0.170000
     25 C18         -1.5560    -1.9310    30.6670 ca         1 RKZ      -0.074500
     26 C19         -1.1150    -2.4930    29.4590 ca         1 RKZ      -0.162000
     27 C20         -1.5990    -2.0030    28.2350 ca         1 RKZ      -0.074500
     28 C21         -2.5280    -0.9470    28.2160 ca         1 RKZ      -0.170000
     29 H1          -4.3650     3.2280    28.8740 hc         1 RKZ       0.051033
     30 H2          -5.8470     2.9070    27.9550 hc         1 RKZ       0.051033
     31 H3          -5.7490     2.4660    29.6790 hc         1 RKZ       0.051033
     32 H4          -3.9810     1.2820    27.4780 h1         1 RKZ       0.050700
     33 H5          -6.3550     0.5120    27.1670 h1         1 RKZ       0.071200
     34 H6          -5.2610    -0.8010    27.5710 h1         1 RKZ       0.071200
     35 H7          -1.5850    -6.8740    28.3150 hn         1 RKZ       0.468750
     36 H8          -2.4910    -5.7610    27.3610 hn         1 RKZ       0.468750
     37 H9          -9.5500     1.4040    29.0710 hc         1 RKZ       0.059700
     38 H10         -8.1960     2.4090    29.6060 hc         1 RKZ       0.059700
     39 H11         -8.1800     1.6750    27.9910 hc         1 RKZ       0.059700
     40 H12         -1.7080    -7.4660    32.2380 hn         1 RKZ       0.468750
     41 H13         -2.6960    -6.6930    33.4190 hn         1 RKZ       0.468750
     42 H14         -8.2210    -2.3750    32.6000 ha         1 RKZ       0.133000
     43 H15         -6.4810    -4.1810    32.4990 ha         1 RKZ       0.126000
     44 H16         -3.9590    -4.1080    28.4940 ha         1 RKZ       0.132000
     45 H17         -4.4680    -5.1300    32.6750 ha         1 RKZ       0.132000
     46 H18         -2.8240    -0.4380    31.5840 ha         1 RKZ       0.120500
     47 H19         -1.1830    -2.3130    31.6150 ha         1 RKZ       0.113500
     48 H20         -0.4000    -3.3140    29.4700 ha         1 RKZ       0.114000
     49 H21         -1.2550    -2.4410    27.3000 ha         1 RKZ       0.113500
     50 H22         -2.8810    -0.5840    27.2560 ha         1 RKZ       0.120500
@<TRIPOS>BOND
     1     1     4 1   
     2     1    29 1   
     3     1    30 1   
     4     1    31 1   
     5     2     6 1   
     6     2     8 1   
     7     2    17 1   
     8     3     4 1   
     9     3    23 1   
    10     4     6 1   
    11     4    32 1   
    12     5     8 2   
    13     5    12 1   
    14     6    33 1   
    15     6    34 1   
    16     7    16 ar  
    17     7    17 ar  
    18     8    10 1   
    19     9    20 1   
    20     9    35 1   
    21     9    36 1   
    22    10    37 1   
    23    10    38 1   
    24    10    39 1   
    25    11    20 ar  
    26    11    21 ar  
    27    12    14 ar  
    28    12    17 ar  
    29    13    21 1   
    30    13    40 1   
    31    13    41 1   
    32    14    15 ar  
    33    14    42 1   
    34    15    16 ar  
    35    15    43 1   
    36    16    18 1   
    37    18    19 ar  
    38    18    22 ar  
    39    19    20 ar  
    40    19    44 1   
    41    21    22 ar  
    42    22    45 1   
    43    23    24 ar  
    44    23    28 ar  
    45    24    25 ar  
    46    24    46 1   
    47    25    26 ar  
    48    25    47 1   
    49    26    27 ar  
    50    26    48 1   
    51    27    28 ar  
    52    27    49 1   
    53    28    50 1   
@<TRIPOS>SUBSTRUCTURE
     1 RKZ         1 TEMP              0 ****  ****    0 ROOT
