@<TRIPOS>MOLECULE
RKZ
   50    53     1     0     0
SMALL
abcg2


@<TRIPOS>ATOM
      1 C1          -5.1480     2.1860    28.9230 c3         1 RKZ      -0.099100
      2 N1          -6.7080    -0.4290    29.2660 na         1 RKZ      -0.283300
      3 O1          -3.8530     0.2710    29.3690 os         1 RKZ      -0.339100
      4 C2          -4.7290     0.8270    28.4000 c3         1 RKZ       0.164300
      5 N2          -8.3350    -0.3360    30.7950 nc         1 RKZ      -0.571100
      6 C3          -5.8990    -0.1160    28.1090 c3         1 RKZ       0.060600
      7 N3          -5.5420    -2.3830    30.0670 nb         1 RKZ      -0.659000
      8 C4          -7.8490     0.1930    29.7030 cd         1 RKZ       0.432800
      9 N4          -1.3080    -5.1100    29.4350 nv         1 RKZ      -1.057900
     10 C5          -8.4980     1.3090    28.9720 c3         1 RKZ      -0.116400
     11 N5          -2.6650    -6.4230    30.7320 nb         1 RKZ      -0.810000
     12 C6          -7.4980    -1.3750    31.0970 ca         1 RKZ       0.037400
     13 N6          -3.9480    -7.8320    32.0060 nv         1 RKZ      -1.057900
     14 C7          -7.5000    -2.3190    32.1110 ca         1 RKZ      -0.023000
     15 C8          -6.5150    -3.2910    32.0630 ca         1 RKZ      -0.170000
     16 C9          -5.5700    -3.3130    31.0230 cp         1 RKZ       0.417500
     17 C10         -6.4760    -1.4630    30.1400 ca         1 RKZ       0.354500
     18 C11         -4.5580    -4.3920    30.9340 cp         1 RKZ      -0.034500
     19 C12         -3.4050    -4.2060    30.1820 ca         1 RKZ      -0.257000
     20 C13         -2.4820    -5.2570    30.1150 ca         1 RKZ       0.628400
     21 C14         -3.7760    -6.5990    31.4430 ca         1 RKZ       0.628400
     22 C15         -4.7560    -5.6090    31.5780 ca         1 RKZ      -0.257000
     23 C16         -2.7860    -0.4660    29.0010 ca         1 RKZ       0.156100
     24 C17         -1.8440    -0.7070    30.0040 ca         1 RKZ      -0.170000
     25 C18         -0.6970    -1.4280    29.7250 ca         1 RKZ      -0.074500
     26 C19         -0.4640    -1.9200    28.4450 ca         1 RKZ      -0.162000
     27 C20         -1.4090    -1.6940    27.4560 ca         1 RKZ      -0.074500
     28 C21         -2.5710    -0.9770    27.7230 ca         1 RKZ      -0.170000
     29 H1          -4.2740     2.8220    29.0550 hc         1 RKZ       0.051033
     30 H2          -5.8090     2.6780    28.2090 hc         1 RKZ       0.051033
     31 H3          -5.6630     2.1150    29.8820 hc         1 RKZ       0.051033
     32 H4          -4.2060     0.9740    27.4490 h1         1 RKZ       0.050700
     33 H5          -6.5290     0.3400    27.3450 h1         1 RKZ       0.071200
     34 H6          -5.5340    -1.0580    27.6980 h1         1 RKZ       0.071200
     35 H7          -0.8300    -5.9570    29.1750 hn         1 RKZ       0.468750
     36 H8          -1.2560    -4.3730    28.7520 hn         1 RKZ       0.468750
     37 H9          -9.4530     1.5280    29.4420 hc         1 RKZ       0.059700
     38 H10         -7.8990     2.2180    28.9810 hc         1 RKZ       0.059700
     39 H11         -8.6810     1.0480    27.9280 hc         1 RKZ       0.059700
     40 H12         -3.1160    -8.3900    32.1100 hn         1 RKZ       0.468750
     41 H13         -4.5850    -7.9000    32.7830 hn         1 RKZ       0.468750
     42 H14         -8.2380    -2.3090    32.9030 ha         1 RKZ       0.133000
     43 H15         -6.4750    -4.0370    32.8430 ha         1 RKZ       0.126000
     44 H16         -3.2120    -3.2740    29.6700 ha         1 RKZ       0.132000
     45 H17         -5.6510    -5.8230    32.1460 ha         1 RKZ       0.132000
     46 H18         -2.0180    -0.3160    30.9990 ha         1 RKZ       0.120500
     47 H19          0.0250    -1.6010    30.5130 ha         1 RKZ       0.113500
     48 H20          0.4400    -2.4740    28.2250 ha         1 RKZ       0.114000
     49 H21         -1.2510    -2.0790    26.4570 ha         1 RKZ       0.113500
     50 H22         -3.2840    -0.8310    26.9230 ha         1 RKZ       0.120500
@<TRIPOS>BOND
     1     1     4 1   
     2     1    29 1   
     3     1    30 1   
     4     1    31 1   
     5     2     6 1   
     6     2     8 1   
     7     2    17 1   
     8     3     4 1   
     9     3    23 1   
    10     4     6 1   
    11     4    32 1   
    12     5     8 2   
    13     5    12 1   
    14     6    33 1   
    15     6    34 1   
    16     7    16 ar  
    17     7    17 ar  
    18     8    10 1   
    19     9    20 1   
    20     9    35 1   
    21     9    36 1   
    22    10    37 1   
    23    10    38 1   
    24    10    39 1   
    25    11    20 ar  
    26    11    21 ar  
    27    12    14 ar  
    28    12    17 ar  
    29    13    21 1   
    30    13    40 1   
    31    13    41 1   
    32    14    15 ar  
    33    14    42 1   
    34    15    16 ar  
    35    15    43 1   
    36    16    18 1   
    37    18    19 ar  
    38    18    22 ar  
    39    19    20 ar  
    40    19    44 1   
    41    21    22 ar  
    42    22    45 1   
    43    23    24 ar  
    44    23    28 ar  
    45    24    25 ar  
    46    24    46 1   
    47    25    26 ar  
    48    25    47 1   
    49    26    27 ar  
    50    26    48 1   
    51    27    28 ar  
    52    27    49 1   
    53    28    50 1   
@<TRIPOS>SUBSTRUCTURE
     1 RKZ         1 TEMP              0 ****  ****    0 ROOT
