@<TRIPOS>MOLECULE
RL0
   45    47     1     0     0
SMALL
abcg2


@<TRIPOS>ATOM
      1 N1         -17.0010     4.0580    25.5540 nb         1 RL0      -0.646000
      2 C4         -16.9650     6.4590    25.7240 ca         1 RL0      -0.092000
      3 C5         -16.3870     5.2090    25.4000 ca         1 RL0       0.357900
      4 C6         -18.2550     4.0730    26.0710 ca         1 RL0       0.312900
      5 C7         -18.9230     5.2180    26.4230 ca         1 RL0      -0.064000
      6 C8         -20.6150     5.4540    28.1830 c          1 RL0       0.602100
      7 C10        -22.3530     4.4850    29.7150 ca         1 RL0      -0.071300
      8 C13        -22.7660     2.9220    32.0080 ca         1 RL0      -0.096000
      9 C15        -22.5160     3.1040    29.6040 ca         1 RL0      -0.099000
     10 C17        -18.8920     7.7120    26.5540 ca         1 RL0      -0.047000
     11 O2         -20.8980     9.5220    25.3390 o          1 RL0      -0.537500
     12 S          -20.0780    10.6610    25.6750 s6         1 RL0       1.230100
     13 O1         -20.6860    11.7820    26.3510 o          1 RL0      -0.537500
     14 C18        -19.3110    11.2450    24.1840 c3         1 RL0      -0.383100
     15 C          -18.0060    11.1730    27.2760 c3         1 RL0       0.187100
     16 C1         -18.2120     8.8860    26.3350 ca         1 RL0       0.245000
     17 C16        -18.2880     6.4760    26.2470 ca         1 RL0       0.002000
     18 C3         -16.2820     7.6810    25.5290 ca         1 RL0      -0.072000
     19 C2         -16.8910     8.8700    25.8240 ca         1 RL0      -0.129000
     20 N2         -20.2510     5.1320    26.9150 ns         1 RL0      -0.171000
     21 O          -19.8180     5.8580    29.0200 o          1 RL0      -0.573100
     22 C9         -22.1030     5.3080    28.4780 c3         1 RL0      -0.107100
     23 C14        -22.7190     2.3450    30.7470 ca         1 RL0       0.125000
     24 CL         -22.9270     0.6100    30.5900 cl         1 RL0      -0.215000
     25 C12        -22.6040     4.2990    32.1120 ca         1 RL0      -0.100000
     26 C11        -22.4000     5.0750    30.9770 ca         1 RL0      -0.081000
     27 H1         -15.3790     5.1870    24.9950 h4         1 RL0       0.023100
     28 H2         -18.7390     3.1110    26.1980 h4         1 RL0       0.026100
     29 H3         -22.9300     2.3110    32.8850 ha         1 RL0       0.131000
     30 H4         -22.4870     2.6270    28.6330 ha         1 RL0       0.124000
     31 H5         -19.8910     7.7430    26.9570 ha         1 RL0       0.149000
     32 H6         -18.6270    12.0540    24.4330 h1         1 RL0       0.102367
     33 H7         -18.7850    10.4130    23.7200 h1         1 RL0       0.102367
     34 H8         -20.1090    11.6050    23.5350 h1         1 RL0       0.102367
     35 H9         -17.4190    10.6970    28.0580 h1         1 RL0       0.057367
     36 H10        -17.3310    11.6570    26.5660 h1         1 RL0       0.057367
     37 H11        -18.6530    11.9200    27.7240 h1         1 RL0       0.057367
     38 H12        -15.2750     7.6630    25.1310 ha         1 RL0       0.122000
     39 H13        -16.3690     9.8030    25.6580 ha         1 RL0       0.118000
     40 H14        -20.9410     4.7050    26.3150 hn         1 RL0       0.161000
     41 H15        -22.4850     6.3220    28.6210 hc         1 RL0       0.071700
     42 H16        -22.6220     4.8750    27.6230 hc         1 RL0       0.071700
     43 H17        -22.6420     4.7660    33.0880 ha         1 RL0       0.121000
     44 H18        -22.2800     6.1470    31.0690 ha         1 RL0       0.125000
     45 N          -18.8420    10.1310    26.6530 nh         1 RL0      -0.760300
@<TRIPOS>BOND
     1     1     3 ar  
     2     1     4 ar  
     3     2     3 ar  
     4     2    17 ar  
     5     2    18 ar  
     6     3    27 1   
     7     4     5 ar  
     8     4    28 1   
     9     5    17 ar  
    10     5    20 1   
    11     6    20 1   
    12     6    21 2   
    13     6    22 1   
    14     7     9 ar  
    15     7    22 1   
    16     7    26 ar  
    17     8    23 ar  
    18     8    25 ar  
    19     8    29 1   
    20     9    23 ar  
    21     9    30 1   
    22    10    16 ar  
    23    10    17 ar  
    24    10    31 1   
    25    11    12 2   
    26    12    13 2   
    27    12    14 1   
    28    12    45 1   
    29    14    32 1   
    30    14    33 1   
    31    14    34 1   
    32    15    35 1   
    33    15    36 1   
    34    15    37 1   
    35    15    45 1   
    36    16    19 ar  
    37    16    45 1   
    38    18    19 ar  
    39    18    38 1   
    40    19    39 1   
    41    20    40 1   
    42    22    41 1   
    43    22    42 1   
    44    23    24 1   
    45    25    26 ar  
    46    25    43 1   
    47    26    44 1   
@<TRIPOS>SUBSTRUCTURE
     1 RL0         1 TEMP              0 ****  ****    0 ROOT
