@<TRIPOS>MOLECULE
RL0
   45    47     1     0     0
SMALL
No Charge or Current Charge


@<TRIPOS>ATOM
      1 N1         -17.1150     4.0570    25.8660 nb         1 RL0      -0.646000
      2 C4         -16.9930     6.4810    25.8560 ca         1 RL0      -0.092000
      3 C5         -16.4490     5.2050    25.6110 ca         1 RL0       0.357900
      4 C6         -18.3550     4.1560    26.3960 ca         1 RL0       0.312900
      5 C7         -18.9810     5.3830    26.7030 ca         1 RL0      -0.064000
      6 C8         -20.7350     5.9120    28.4640 c          1 RL0       0.602100
      7 C10        -22.3840     4.5350    29.7750 ca         1 RL0      -0.071300
      8 C13        -22.6760     2.4410    31.6420 ca         1 RL0      -0.096000
      9 C15        -22.5480     3.2060    29.3340 ca         1 RL0      -0.099000
     10 C17        -18.8480     7.8680    26.6070 ca         1 RL0      -0.047000
     11 O2         -21.0710     9.8170    25.6690 o          1 RL0      -0.537500
     12 S          -20.0130    10.8200    25.5160 s6         1 RL0       1.230100
     13 O1         -20.2780    12.2260    25.8390 o          1 RL0      -0.537500
     14 C18        -19.3820    10.7320    23.8510 c3         1 RL0      -0.383100
     15 C          -17.9210    11.3580    27.2030 c3         1 RL0       0.187100
     16 C1         -18.1220     9.0310    26.2890 ca         1 RL0       0.245000
     17 C16        -18.2900     6.5850    26.4060 ca         1 RL0       0.002000
     18 C3         -16.2580     7.6400    25.5500 ca         1 RL0      -0.072000
     19 C2         -16.8200     8.9070    25.7730 ca         1 RL0      -0.129000
     20 N2         -20.2780     5.3460    27.2840 ns         1 RL0      -0.171000
     21 O          -20.0080     6.5360    29.2290 o          1 RL0      -0.573100
     22 C9         -22.2190     5.6670    28.7660 c3         1 RL0      -0.107100
     23 C14        -22.6940     2.1650    30.2650 ca         1 RL0       0.125000
     24 Cl         -22.8970     0.5100    29.7050 cl         1 RL0      -0.215000
     25 C12        -22.5120     3.7630    32.0890 ca         1 RL0      -0.100000
     26 C11        -22.3660     4.8070    31.1570 ca         1 RL0      -0.081000
     27 H1         -15.4520     5.0970    25.1860 h4         1 RL0       0.023100
     28 H2         -18.8620     3.2140    26.6000 h4         1 RL0       0.026100
     29 H3         -22.7890     1.6320    32.3600 ha         1 RL0       0.131000
     30 H4         -22.5640     2.9770    28.2710 ha         1 RL0       0.124000
     31 H5         -19.8470     7.9800    27.0100 ha         1 RL0       0.149000
     32 H6         -18.5090    11.3900    23.7970 h1         1 RL0       0.102367
     33 H7         -19.1080     9.6900    23.6570 h1         1 RL0       0.102367
     34 H8         -20.1780    11.0670    23.1810 h1         1 RL0       0.102367
     35 H9         -17.1140    10.9140    27.8010 h1         1 RL0       0.057367
     36 H10        -17.4750    12.0680    26.4940 h1         1 RL0       0.057367
     37 H11        -18.5760    11.9080    27.8920 h1         1 RL0       0.057367
     38 H12        -15.2550     7.5620    25.1320 ha         1 RL0       0.122000
     39 H13        -16.2480     9.7970    25.5240 ha         1 RL0       0.118000
     40 H14        -20.9610     4.7990    26.7750 hn         1 RL0       0.161000
     41 H15        -22.6490     6.5890    29.1740 hc         1 RL0       0.071700
     42 H16        -22.7440     5.4030    27.8400 hc         1 RL0       0.071700
     43 H17        -22.4960     3.9800    33.1550 ha         1 RL0       0.121000
     44 H18        -22.2350     5.8270    31.5120 ha         1 RL0       0.125000
     45 N          -18.6770    10.3090    26.4900 nh         1 RL0      -0.760300
@<TRIPOS>BOND
     1     1     3 ar  
     2     1     4 ar  
     3     2     3 ar  
     4     2    17 ar  
     5     2    18 ar  
     6     3    27 1   
     7     4     5 ar  
     8     4    28 1   
     9     5    17 ar  
    10     5    20 1   
    11     6    20 1   
    12     6    21 2   
    13     6    22 1   
    14     7     9 ar  
    15     7    22 1   
    16     7    26 ar  
    17     8    23 ar  
    18     8    25 ar  
    19     8    29 1   
    20     9    23 ar  
    21     9    30 1   
    22    10    16 ar  
    23    10    17 ar  
    24    10    31 1   
    25    11    12 2   
    26    12    13 2   
    27    12    14 1   
    28    12    45 1   
    29    14    32 1   
    30    14    33 1   
    31    14    34 1   
    32    15    35 1   
    33    15    36 1   
    34    15    37 1   
    35    15    45 1   
    36    16    19 ar  
    37    16    45 1   
    38    18    19 ar  
    39    18    38 1   
    40    19    39 1   
    41    20    40 1   
    42    22    41 1   
    43    22    42 1   
    44    23    24 1   
    45    25    26 ar  
    46    25    43 1   
    47    26    44 1   
@<TRIPOS>SUBSTRUCTURE
     1 RL0         1 TEMP              0 ****  ****    0 ROOT
