@<TRIPOS>MOLECULE
RL1
   47    51     1     0     0
SMALL
abcg2


@<TRIPOS>ATOM
      1 C01         -1.3980    -2.3630    -1.8270 ca         1 RL1       0.270100
      2 C02         -0.5820    -3.4160    -1.4260 ca         1 RL1      -0.288000
      3 C03          0.4020    -3.2210    -0.4700 ca         1 RL1       0.247100
      4 C04          0.5880    -1.9500     0.1020 ca         1 RL1      -0.212900
      5 C05         -0.2590    -0.9230    -0.2790 ca         1 RL1       0.018000
      6 C06         -1.2840    -1.1020    -1.2040 ca         1 RL1      -0.306600
      7 C07         -2.1910    -0.0160    -1.6350 c          1 RL1       0.637700
      8 O08         -2.6240    -0.0260    -2.7960 o          1 RL1      -0.648100
      9 O09          1.2230    -4.1970    -0.0810 oh         1 RL1      -0.501100
     10 O10         -2.2770    -2.5980    -2.7970 oh         1 RL1      -0.536100
     11 C11          1.6590    -1.7160     1.0680 cc         1 RL1       0.389400
     12 N12          2.6990    -0.8540     0.8560 na         1 RL1       0.016200
     13 C13          3.4590    -0.9250     2.0000 cc         1 RL1      -0.105000
     14 N14          2.9100    -1.7790     2.8360 nd         1 RL1      -0.088000
     15 N15          1.8020    -2.2560     2.2490 nd         1 RL1      -0.329700
     16 C16          3.0270    -0.0740    -0.2170 cc         1 RL1      -0.056000
     17 C17          4.1490     0.6770    -0.1280 cd         1 RL1      -0.070900
     18 C18          4.9660     0.6570     1.0420 cd         1 RL1      -0.078000
     19 C19          4.6270    -0.1340     2.0920 cc         1 RL1      -0.070000
     20 BR1          4.6460     1.7650    -1.5730 br         1 RL1      -0.059100
     21 N21         -2.5160     0.9720    -0.7790 n          1 RL1      -0.384800
     22 C22         -2.5480     0.8470     0.6670 c6         1 RL1       0.144300
     23 C23         -3.9400     1.0570     1.2210 ca         1 RL1      -0.111300
     24 C24         -4.9840     1.5490     0.4400 ca         1 RL1      -0.066300
     25 C25         -4.7510     1.9110    -1.0020 c6         1 RL1      -0.058100
     26 C26         -3.2720     2.1170    -1.2660 c6         1 RL1       0.091000
     27 C27         -4.1670     0.7480     2.5620 ca         1 RL1      -0.101000
     28 C28         -5.4200     0.9140     3.1270 ca         1 RL1      -0.107000
     29 C29         -6.4660     1.3950     2.3490 ca         1 RL1      -0.102000
     30 C30         -6.2430     1.7100     1.0190 ca         1 RL1      -0.106000
     31 H1          -0.7010    -4.3830    -1.9010 ha         1 RL1       0.140000
     32 H2          -0.1020     0.0560     0.1560 ha         1 RL1       0.123000
     33 H3           1.0310    -5.0160    -0.5530 ho         1 RL1       0.476000
     34 H4          -2.6320    -1.7280    -3.0860 ho         1 RL1       0.521000
     35 H5           2.3700    -0.1070    -1.0740 h4         1 RL1       0.167000
     36 H6           5.8540     1.2700     1.0900 ha         1 RL1       0.140000
     37 H7           5.2280    -0.1750     2.9890 ha         1 RL1       0.151000
     38 H8          -2.2090    -0.1420     0.9630 h1         1 RL1       0.065200
     39 H9          -1.8600     1.5690     1.1190 h1         1 RL1       0.065200
     40 H10         -5.1350     1.1230    -1.6570 hc         1 RL1       0.064700
     41 H11         -5.3010     2.8200    -1.2560 hc         1 RL1       0.064700
     42 H12         -2.9120     2.9970    -0.7270 h1         1 RL1       0.066200
     43 H13         -3.0720     2.2740    -2.3220 h1         1 RL1       0.066200
     44 H14         -3.3500     0.3670     3.1650 ha         1 RL1       0.115000
     45 H15         -5.5810     0.6660     4.1680 ha         1 RL1       0.117000
     46 H16         -7.4510     1.5290     2.7790 ha         1 RL1       0.116000
     47 H17         -7.0570     2.0940     0.4140 ha         1 RL1       0.113000
@<TRIPOS>BOND
     1     1     2 ar  
     2     1     6 ar  
     3     1    10 1   
     4     2     3 ar  
     5     2    31 1   
     6     3     4 ar  
     7     3     9 1   
     8     4     5 ar  
     9     4    11 1   
    10     5     6 ar  
    11     5    32 1   
    12     6     7 1   
    13     7     8 2   
    14     7    21 1   
    15     9    33 1   
    16    10    34 1   
    17    11    12 1   
    18    11    15 2   
    19    12    13 1   
    20    12    16 1   
    21    13    14 2   
    22    13    19 1   
    23    14    15 1   
    24    16    17 2   
    25    16    35 1   
    26    17    18 1   
    27    17    20 1   
    28    18    19 2   
    29    18    36 1   
    30    19    37 1   
    31    21    22 1   
    32    21    26 1   
    33    22    23 1   
    34    22    38 1   
    35    22    39 1   
    36    23    24 ar  
    37    23    27 ar  
    38    24    25 1   
    39    24    30 ar  
    40    25    26 1   
    41    25    40 1   
    42    25    41 1   
    43    26    42 1   
    44    26    43 1   
    45    27    28 ar  
    46    27    44 1   
    47    28    29 ar  
    48    28    45 1   
    49    29    30 ar  
    50    29    46 1   
    51    30    47 1   
@<TRIPOS>SUBSTRUCTURE
     1 RL1         1 TEMP              0 ****  ****    0 ROOT
