@<TRIPOS>MOLECULE
RL1
   47    51     1     0     0
SMALL
No Charge or Current Charge


@<TRIPOS>ATOM
      1 C01         -1.3900    -2.6550    -1.9060 ca         1 RL1       0.270100
      2 C02         -0.5260    -3.6880    -1.5350 ca         1 RL1      -0.288000
      3 C03          0.5020    -3.4530    -0.6170 ca         1 RL1       0.247100
      4 C04          0.6960    -2.1640    -0.0850 ca         1 RL1      -0.212900
      5 C05         -0.1970    -1.1340    -0.4460 ca         1 RL1       0.018000
      6 C06         -1.2640    -1.3740    -1.3410 ca         1 RL1      -0.306600
      7 C07         -2.2230    -0.2790    -1.7400 c          1 RL1       0.637700
      8 O08         -2.7510    -0.3170    -2.8470 o          1 RL1      -0.648100
      9 O09          1.3420    -4.4760    -0.2980 oh         1 RL1      -0.501100
     10 O10         -2.3560    -2.9120    -2.8230 oh         1 RL1      -0.536100
     11 C11          1.7570    -1.8920     0.8920 cc         1 RL1       0.389400
     12 N12          2.5550    -0.7800     0.9530 na         1 RL1       0.016200
     13 C13          3.3920    -0.8850     2.0140 cc         1 RL1      -0.105000
     14 N14          3.0670    -1.9790     2.6780 nd         1 RL1      -0.088000
     15 N15          2.0440    -2.6120     1.9740 nd         1 RL1      -0.329700
     16 C16          2.7670     0.1000    -0.1170 cc         1 RL1      -0.056000
     17 C17          3.7320     1.0820     0.1210 cd         1 RL1      -0.070900
     18 C18          4.5390     1.1000     1.3240 cd         1 RL1      -0.078000
     19 C19          4.3890     0.0960     2.2520 cc         1 RL1      -0.070000
     20 Br1          4.0300     2.4090    -1.1840 br         1 RL1      -0.059100
     21 N21         -2.4510     0.8060    -0.8680 n          1 RL1      -0.384800
     22 C22         -2.5150     0.6310     0.6110 c6         1 RL1       0.144300
     23 C23         -3.8480     1.0520     1.2500 ca         1 RL1      -0.111300
     24 C24         -4.8480     1.7140     0.5020 ca         1 RL1      -0.066300
     25 C25         -4.6240     2.0250    -0.9760 c6         1 RL1      -0.058100
     26 C26         -3.1270     2.0380    -1.3390 c6         1 RL1       0.091000
     27 C27         -4.0740     0.7700     2.6110 ca         1 RL1      -0.101000
     28 C28         -5.2840     1.1380     3.2230 ca         1 RL1      -0.107000
     29 C29         -6.2780     1.7900     2.4760 ca         1 RL1      -0.102000
     30 C30         -6.0600     2.0760     1.1180 ca         1 RL1      -0.106000
     31 H1          -0.6590    -4.6720    -1.9770 ha         1 RL1       0.140000
     32 H2          -0.0510    -0.1400    -0.0280 ha         1 RL1       0.123000
     33 H3           1.0390    -5.2770    -0.7730 ho         1 RL1       0.476000
     34 H4          -2.7190    -2.0210    -3.0690 ho         1 RL1       0.521000
     35 H5           2.1680     0.0050    -1.0140 h4         1 RL1       0.167000
     36 H6           5.2890     1.8710     1.4710 ha         1 RL1       0.140000
     37 H7           5.0190     0.0330     3.1340 ha         1 RL1       0.151000
     38 H8          -2.3460    -0.4230     0.8710 h1         1 RL1       0.065200
     39 H9          -1.7050     1.2140     1.0710 h1         1 RL1       0.065200
     40 H10         -5.1400     1.2710    -1.5850 hc         1 RL1       0.064700
     41 H11         -5.0700     2.9950    -1.2350 hc         1 RL1       0.064700
     42 H12         -2.6480     2.9060    -0.8640 h1         1 RL1       0.066200
     43 H13         -3.0040     2.1580    -2.4250 h1         1 RL1       0.066200
     44 H14         -3.3100     0.2630     3.1970 ha         1 RL1       0.115000
     45 H15         -5.4510     0.9160     4.2740 ha         1 RL1       0.117000
     46 H16         -7.2160     2.0740     2.9480 ha         1 RL1       0.116000
     47 H17         -6.8350     2.5800     0.5440 ha         1 RL1       0.113000
@<TRIPOS>BOND
     1     1     2 ar  
     2     1     6 ar  
     3     1    10 1   
     4     2     3 ar  
     5     2    31 1   
     6     3     4 ar  
     7     3     9 1   
     8     4     5 ar  
     9     4    11 1   
    10     5     6 ar  
    11     5    32 1   
    12     6     7 1   
    13     7     8 2   
    14     7    21 1   
    15     9    33 1   
    16    10    34 1   
    17    11    12 1   
    18    11    15 2   
    19    12    13 1   
    20    12    16 1   
    21    13    14 2   
    22    13    19 1   
    23    14    15 1   
    24    16    17 2   
    25    16    35 1   
    26    17    18 1   
    27    17    20 1   
    28    18    19 2   
    29    18    36 1   
    30    19    37 1   
    31    21    22 1   
    32    21    26 1   
    33    22    23 1   
    34    22    38 1   
    35    22    39 1   
    36    23    24 ar  
    37    23    27 ar  
    38    24    25 1   
    39    24    30 ar  
    40    25    26 1   
    41    25    40 1   
    42    25    41 1   
    43    26    42 1   
    44    26    43 1   
    45    27    28 ar  
    46    27    44 1   
    47    28    29 ar  
    48    28    45 1   
    49    29    30 ar  
    50    29    46 1   
    51    30    47 1   
@<TRIPOS>SUBSTRUCTURE
     1 RL1         1 TEMP              0 ****  ****    0 ROOT
