@<TRIPOS>MOLECULE
RL2
   53    53     1     0     0
SMALL
No Charge or Current Charge


@<TRIPOS>ATOM
      1 C4          -2.2600     0.7830     0.8020 c          1 RL2       0.561100
      2 O9          -2.1660     0.3750     1.9540 o          1 RL2      -0.648100
      3 C3          -3.6070     1.3110     0.2040 c3         1 RL2       0.124300
      4 O8          -4.7160     0.4680     0.5880 oh         1 RL2      -0.634000
      5 C2          -3.8950     2.7690     0.6440 c3         1 RL2      -0.243400
      6 C1          -4.9320     3.4080    -0.2850 c          1 RL2       0.730000
      7 O6          -6.1060     3.3940     0.0520 o          1 RL2      -0.730500
      8 O7          -4.5340     3.8910    -1.3340 o          1 RL2      -0.730500
      9 N5          -1.1870     0.7630    -0.0680 ns         1 RL2      -0.497900
     10 C10          0.1780     0.2890     0.2660 c3         1 RL2       0.032700
     11 C11          1.2440     1.2150    -0.3910 c          1 RL2       0.587100
     12 O26          0.9740     2.0420    -1.2550 o          1 RL2      -0.599100
     13 C12          0.3840    -1.1930    -0.1540 c3         1 RL2      -0.084400
     14 C13         -0.5540    -2.2020     0.5470 c3         1 RL2      -0.034100
     15 C14         -0.2250    -3.6400     0.1690 ca         1 RL2      -0.069300
     16 C15          0.6440    -4.4060     0.9710 ca         1 RL2      -0.107000
     17 C19         -0.7810    -4.2140    -0.9910 ca         1 RL2      -0.107000
     18 C16          0.9510    -5.7310     0.6190 ca         1 RL2      -0.113500
     19 C18         -0.4740    -5.5400    -1.3430 ca         1 RL2      -0.113500
     20 C17          0.3920    -6.2990    -0.5380 ca         1 RL2      -0.120000
     21 C25          6.3510     3.4370    -0.0520 c3         1 RL2      -0.088600
     22 C23          6.2860     1.9290    -0.3960 c3         1 RL2      -0.057700
     23 C24          7.5590     1.2010     0.0940 c3         1 RL2      -0.088600
     24 C22          5.0070     1.2420     0.1530 c3         1 RL2      -0.093400
     25 C21          3.6870     1.8040    -0.4140 c3         1 RL2       0.105000
     26 N20          2.5320     1.0480     0.0710 ns         1 RL2      -0.509900
     27 H31         -3.4900     1.2970    -0.8890 h1         1 RL2       0.094700
     28 HO8         -4.5820     0.2540     1.5390 ho         1 RL2       0.443000
     29 H21         -4.2500     2.7380     1.6820 hc         1 RL2       0.031200
     30 H22         -2.9380     3.2920     0.5260 hc         1 RL2       0.031200
     31 HN5         -1.3380     1.1490    -0.9940 hn         1 RL2       0.341500
     32 H101         0.3270     0.3700     1.3510 h1         1 RL2       0.081700
     33 H121         0.2570    -1.2800    -1.2400 hc         1 RL2       0.045700
     34 H122         1.4190    -1.4840     0.0620 hc         1 RL2       0.045700
     35 H131        -0.4800    -2.0700     1.6330 hc         1 RL2       0.064700
     36 H132        -1.5950    -1.9810     0.2820 hc         1 RL2       0.064700
     37 H151         1.0830    -3.9730     1.8680 ha         1 RL2       0.114000
     38 H191        -1.4500    -3.6320    -1.6210 ha         1 RL2       0.114000
     39 H161         1.6220    -6.3180     1.2420 ha         1 RL2       0.105500
     40 H181        -0.9070    -5.9780    -2.2400 ha         1 RL2       0.105500
     41 H171         0.6300    -7.3250    -0.8110 ha         1 RL2       0.104000
     42 H251         6.3110     3.5930     1.0330 hc         1 RL2       0.032867
     43 H252         7.2830     3.8790    -0.4260 hc         1 RL2       0.032867
     44 H253         5.5200     3.9850    -0.5110 hc         1 RL2       0.032867
     45 H231         6.2670     1.8420    -1.4900 hc         1 RL2       0.047700
     46 H241         7.6420     1.2510     1.1870 hc         1 RL2       0.032867
     47 H242         7.5400     0.1450    -0.2010 hc         1 RL2       0.032867
     48 H243         8.4580     1.6560    -0.3400 hc         1 RL2       0.032867
     49 H221         5.0550     0.1710    -0.0840 hc         1 RL2       0.041200
     50 H222         4.9920     1.3230     1.2470 hc         1 RL2       0.041200
     51 H211         3.5640     2.8530    -0.1170 h1         1 RL2       0.052200
     52 H212         3.7090     1.7540    -1.5110 h1         1 RL2       0.052200
     53 H20          2.6780     0.3480     0.7890 hn         1 RL2       0.312500
@<TRIPOS>BOND
     1     1     2 2   
     2     1     3 1   
     3     1     9 1   
     4     3     4 1   
     5     3     5 1   
     6     3    27 1   
     7     4    28 1   
     8     5     6 1   
     9     5    29 1   
    10     5    30 1   
    11     6     7 1   
    12     6     8 1   
    13     9    10 1   
    14     9    31 1   
    15    10    11 1   
    16    10    13 1   
    17    10    32 1   
    18    11    12 2   
    19    11    26 1   
    20    13    14 1   
    21    13    33 1   
    22    13    34 1   
    23    14    15 1   
    24    14    35 1   
    25    14    36 1   
    26    15    16 ar  
    27    15    17 ar  
    28    16    18 ar  
    29    16    37 1   
    30    17    19 ar  
    31    17    38 1   
    32    18    20 ar  
    33    18    39 1   
    34    19    20 ar  
    35    19    40 1   
    36    20    41 1   
    37    21    22 1   
    38    21    42 1   
    39    21    43 1   
    40    21    44 1   
    41    22    23 1   
    42    22    24 1   
    43    22    45 1   
    44    23    46 1   
    45    23    47 1   
    46    23    48 1   
    47    24    25 1   
    48    24    49 1   
    49    24    50 1   
    50    25    26 1   
    51    25    51 1   
    52    25    52 1   
    53    26    53 1   
@<TRIPOS>SUBSTRUCTURE
     1 RL2         1 TEMP              0 ****  ****    0 ROOT
