@<TRIPOS>MOLECULE
RL2
   53    53     1     0     0
SMALL
abcg2


@<TRIPOS>ATOM
      1 C4          -2.0820     0.7120     0.8680 c          1 RL2       0.561100
      2 O9          -1.9510     0.4470     2.0560 o          1 RL2      -0.648100
      3 C3          -3.3780     1.3180     0.3420 c3         1 RL2       0.124300
      4 O8          -4.4660     0.8400     1.0870 oh         1 RL2      -0.634000
      5 C2          -3.2790     2.8390     0.3800 c3         1 RL2      -0.243400
      6 C1          -4.5300     3.5300    -0.2020 c          1 RL2       0.730000
      7 O6          -4.9300     4.5530     0.3860 o          1 RL2      -0.730500
      8 O7          -5.0140     3.0250    -1.2340 o          1 RL2      -0.730500
      9 N5          -1.1180     0.5400    -0.0490 ns         1 RL2      -0.497900
     10 C10          0.2100     0.0650     0.2460 c3         1 RL2       0.032700
     11 C11          1.2260     0.9430    -0.4800 c          1 RL2       0.587100
     12 O26          0.9630     1.4710    -1.5520 o          1 RL2      -0.599100
     13 C12          0.4140    -1.3940    -0.1850 c3         1 RL2      -0.084400
     14 C13         -0.5250    -2.3680     0.5260 c3         1 RL2      -0.034100
     15 C14         -0.2670    -3.7840     0.0920 ca         1 RL2      -0.069300
     16 C15          0.6080    -4.6040     0.8000 ca         1 RL2      -0.107000
     17 C19         -0.8670    -4.2910    -1.0600 ca         1 RL2      -0.107000
     18 C16          0.8760    -5.8980     0.3710 ca         1 RL2      -0.113500
     19 C18         -0.6020    -5.5830    -1.4920 ca         1 RL2      -0.113500
     20 C17          0.2720    -6.3920    -0.7770 ca         1 RL2      -0.120000
     21 C25          6.0280     3.5860    -0.1770 c3         1 RL2      -0.088600
     22 C23          6.0750     2.0630    -0.2730 c3         1 RL2      -0.057700
     23 C24          7.3130     1.5220     0.4340 c3         1 RL2      -0.088600
     24 C22          4.8190     1.4030     0.2970 c3         1 RL2      -0.093400
     25 C21          3.5450     1.7460    -0.4590 c3         1 RL2       0.105000
     26 N20          2.4190     1.0320     0.1140 ns         1 RL2      -0.509900
     27 H31         -3.5420     1.0030    -0.6920 h1         1 RL2       0.094700
     28 HO8         -4.2490     0.9430     2.0210 ho         1 RL2       0.443000
     29 H21         -3.0950     3.1730     1.4050 hc         1 RL2       0.031200
     30 H22         -2.4120     3.1600    -0.2080 hc         1 RL2       0.031200
     31 HN5         -1.3160     0.7720    -1.0110 hn         1 RL2       0.341500
     32 H101         0.3580     0.1380     1.3250 h1         1 RL2       0.081700
     33 H121         0.2770    -1.4750    -1.2680 hc         1 RL2       0.045700
     34 H122         1.4500    -1.6770     0.0220 hc         1 RL2       0.045700
     35 H131        -0.3960    -2.2750     1.6070 hc         1 RL2       0.064700
     36 H132        -1.5620    -2.1040     0.3050 hc         1 RL2       0.064700
     37 H151         1.0830    -4.2300     1.7000 ha         1 RL2       0.114000
     38 H191        -1.5520    -3.6660    -1.6210 ha         1 RL2       0.114000
     39 H161         1.5580    -6.5210     0.9360 ha         1 RL2       0.105500
     40 H181        -1.0820    -5.9600    -2.3870 ha         1 RL2       0.105500
     41 H171         0.4770    -7.4010    -1.1100 ha         1 RL2       0.104000
     42 H251         5.9110     3.9060     0.8620 hc         1 RL2       0.032867
     43 H252         6.9520     4.0270    -0.5550 hc         1 RL2       0.032867
     44 H253         5.2060     4.0140    -0.7510 hc         1 RL2       0.032867
     45 H231         6.1460     1.7900    -1.3330 hc         1 RL2       0.047700
     46 H241         7.2850     1.7530     1.5020 hc         1 RL2       0.032867
     47 H242         7.3880     0.4380     0.3330 hc         1 RL2       0.032867
     48 H243         8.2240     1.9590     0.0240 hc         1 RL2       0.032867
     49 H221         4.9520     0.3170     0.2810 hc         1 RL2       0.041200
     50 H222         4.7090     1.6890     1.3500 hc         1 RL2       0.041200
     51 H211         3.3540     2.8220    -0.4330 h1         1 RL2       0.052200
     52 H212         3.6530     1.4670    -1.5100 h1         1 RL2       0.052200
     53 H20          2.5410     0.6200     1.0250 hn         1 RL2       0.312500
@<TRIPOS>BOND
     1     1     2 2   
     2     1     3 1   
     3     1     9 1   
     4     3     4 1   
     5     3     5 1   
     6     3    27 1   
     7     4    28 1   
     8     5     6 1   
     9     5    29 1   
    10     5    30 1   
    11     6     7 1   
    12     6     8 1   
    13     9    10 1   
    14     9    31 1   
    15    10    11 1   
    16    10    13 1   
    17    10    32 1   
    18    11    12 2   
    19    11    26 1   
    20    13    14 1   
    21    13    33 1   
    22    13    34 1   
    23    14    15 1   
    24    14    35 1   
    25    14    36 1   
    26    15    16 ar  
    27    15    17 ar  
    28    16    18 ar  
    29    16    37 1   
    30    17    19 ar  
    31    17    38 1   
    32    18    20 ar  
    33    18    39 1   
    34    19    20 ar  
    35    19    40 1   
    36    20    41 1   
    37    21    22 1   
    38    21    42 1   
    39    21    43 1   
    40    21    44 1   
    41    22    23 1   
    42    22    24 1   
    43    22    45 1   
    44    23    46 1   
    45    23    47 1   
    46    23    48 1   
    47    24    25 1   
    48    24    49 1   
    49    24    50 1   
    50    25    26 1   
    51    25    51 1   
    52    25    52 1   
    53    26    53 1   
@<TRIPOS>SUBSTRUCTURE
     1 RL2         1 TEMP              0 ****  ****    0 ROOT
