@<TRIPOS>MOLECULE
RL3
   45    48     1     0     0
SMALL
bcc


@<TRIPOS>ATOM
      1 C01         -2.3780    -1.6400     0.6380 ca         1 RL3       0.225100
      2 C02         -1.8010    -2.8860     0.4530 ca         1 RL3      -0.292000
      3 C03         -0.4840    -3.0000     0.0210 ca         1 RL3       0.258100
      4 C04          0.2900    -1.8370    -0.1880 ca         1 RL3      -0.262900
      5 C05         -0.3350    -0.5980    -0.0370 ca         1 RL3      -0.008000
      6 C06         -1.6510    -0.4790     0.3600 ca         1 RL3      -0.225600
      7 C07         -2.2440     0.8760     0.6070 c          1 RL3       0.705700
      8 O08         -1.9600     1.4770     1.6360 o          1 RL3      -0.599100
      9 O09         -0.0090    -4.2310    -0.1720 oh         1 RL3      -0.499100
     10 O10         -3.6410    -1.4810     1.0550 oh         1 RL3      -0.481100
     11 C11          1.6820    -1.9860    -0.5730 cc         1 RL3       0.413400
     12 N12          2.7240    -1.1170    -0.3900 na         1 RL3      -0.078200
     13 C13          3.8230    -1.7640    -0.9210 cc         1 RL3      -0.054300
     14 N14          3.4720    -2.9470    -1.3660 nd         1 RL3      -0.066000
     15 N15          2.1600    -3.0680    -1.1450 nd         1 RL3      -0.421700
     16 C16          2.8250     0.1020     0.2320 cc         1 RL3      -0.024300
     17 C17          4.0330     0.7080     0.2550 cd         1 RL3      -0.065900
     18 C18          5.1830     0.1050    -0.3350 cd         1 RL3      -0.091000
     19 C19          5.0800    -1.1190    -0.9060 cc         1 RL3      -0.089000
     20 N20         -3.0540     1.3740    -0.3410 n          1 RL3      -0.466800
     21 N21         -5.5530     1.8700    -1.5800 n3         1 RL3      -0.715600
     22 C22         -6.9840     1.7690    -1.7630 c3         1 RL3       0.152100
     23 BR1          4.2060     2.3720     1.1020 br         1 RL3      -0.048100
     24 C24         -3.4000     0.7180    -1.5880 c6         1 RL3       0.100000
     25 C25         -4.9080     0.5790    -1.7100 c6         1 RL3       0.144300
     26 C26         -5.2180     2.4880    -0.3130 c6         1 RL3       0.144300
     27 C27         -3.7150     2.6550    -0.1740 c6         1 RL3       0.100000
     28 H1          -2.3720    -3.7910     0.6300 ha         1 RL3       0.156000
     29 H2           0.2020     0.3110    -0.2780 ha         1 RL3       0.138000
     30 H3           0.8650    -4.1830    -0.6200 ho         1 RL3       0.485000
     31 H4          -4.0720    -2.3330     1.1960 ho         1 RL3       0.436000
     32 H5           1.9420     0.5060     0.6990 h4         1 RL3       0.192000
     33 H6           6.1350     0.6170    -0.3110 ha         1 RL3       0.161000
     34 H7           5.9320    -1.6190    -1.3440 ha         1 RL3       0.171000
     35 H9          -7.4370     2.7600    -1.7160 h1         1 RL3       0.032033
     36 H10         -7.2040     1.3470    -2.7440 h1         1 RL3       0.032033
     37 H11         -7.4740     1.1370    -1.0070 h1         1 RL3       0.032033
     38 H12         -3.0210     1.3210    -2.4190 h1         1 RL3       0.060950
     39 H13         -2.9290    -0.2590    -1.6570 h1         1 RL3       0.060950
     40 H14         -5.2660    -0.1410    -0.9540 h1         1 RL3       0.041450
     41 H15         -5.1410     0.1610    -2.6920 h1         1 RL3       0.041450
     42 H16         -5.6850     3.4740    -0.2610 h1         1 RL3       0.041450
     43 H17         -5.5980     1.9040     0.5440 h1         1 RL3       0.041450
     44 H18         -3.4700     3.0680     0.8000 h1         1 RL3       0.060950
     45 H19         -3.3470     3.3470    -0.9370 h1         1 RL3       0.060950
@<TRIPOS>BOND
     1     1     2 ar  
     2     1     6 ar  
     3     1    10 1   
     4     2     3 ar  
     5     2    28 1   
     6     3     4 ar  
     7     3     9 1   
     8     4     5 ar  
     9     4    11 1   
    10     5     6 ar  
    11     5    29 1   
    12     6     7 1   
    13     7     8 2   
    14     7    20 1   
    15     9    30 1   
    16    10    31 1   
    17    11    12 1   
    18    11    15 2   
    19    12    13 1   
    20    12    16 1   
    21    13    14 2   
    22    13    19 1   
    23    14    15 1   
    24    16    17 2   
    25    16    32 1   
    26    17    18 1   
    27    17    23 1   
    28    18    19 2   
    29    18    33 1   
    30    19    34 1   
    31    20    24 1   
    32    20    27 1   
    33    21    22 1   
    34    21    25 1   
    35    21    26 1   
    36    22    35 1   
    37    22    36 1   
    38    22    37 1   
    39    24    25 1   
    40    24    38 1   
    41    24    39 1   
    42    25    40 1   
    43    25    41 1   
    44    26    27 1   
    45    26    42 1   
    46    26    43 1   
    47    27    44 1   
    48    27    45 1   
@<TRIPOS>SUBSTRUCTURE
     1 RL3         1 TEMP              0 ****  ****    0 ROOT
