@<TRIPOS>MOLECULE
RL3
   45    48     1     0     0
SMALL
No Charge or Current Charge


@<TRIPOS>ATOM
      1 C01         -2.1960    -1.5660     0.6460 ca         1 RL3       0.225100
      2 C02         -1.6190    -2.8370     0.5670 ca         1 RL3      -0.274000
      3 C03         -0.3040    -2.9930     0.1210 ca         1 RL3       0.258100
      4 C04          0.4800    -1.8690    -0.2060 ca         1 RL3      -0.262900
      5 C05         -0.1250    -0.5940    -0.1700 ca         1 RL3       0.010000
      6 C06         -1.4630    -0.4340     0.2420 ca         1 RL3      -0.225600
      7 C07         -2.0310     0.9600     0.2840 c          1 RL3       0.638700
      8 O08         -1.3860     1.8670     0.7960 o          1 RL3      -0.599100
      9 O09          0.2030    -4.2530     0.0460 oh         1 RL3      -0.538100
     10 O10         -3.4570    -1.4520     1.1450 oh         1 RL3      -0.520100
     11 C11          1.8610    -2.0170    -0.6860 cc         1 RL3       0.413400
     12 N12          2.9150    -1.1510    -0.5290 na         1 RL3       0.023200
     13 C13          4.0210    -1.7000    -1.0930 cc         1 RL3      -0.105000
     14 N14          3.6670    -2.8260    -1.6820 nd         1 RL3      -0.066000
     15 N15          2.3190    -3.0390    -1.4060 nd         1 RL3      -0.421700
     16 C16          2.9810    -0.1640     0.4670 cc         1 RL3      -0.057000
     17 C17          4.2100     0.4950     0.5480 cd         1 RL3      -0.065900
     18 C18          5.3680     0.0730    -0.2110 cd         1 RL3      -0.073000
     19 C19          5.2810    -1.0530    -0.9960 cc         1 RL3      -0.071000
     20 N20         -3.3340     1.1860    -0.2070 n          1 RL3      -0.399800
     21 N21         -5.8050     1.9720    -1.6650 n3         1 RL3      -0.715600
     22 C22         -7.2420     2.0860    -2.0000 c3         1 RL3       0.152100
     23 Br1          4.3910     1.9550     1.7290 br         1 RL3      -0.048100
     24 C24         -3.7940     0.4670    -1.4360 c6         1 RL3       0.100000
     25 C25         -5.3210     0.5670    -1.7000 c6         1 RL3       0.144300
     26 C26         -5.4770     2.5820    -0.3500 c6         1 RL3       0.144300
     27 C27         -3.9540     2.5350    -0.0440 c6         1 RL3       0.100000
     28 H1          -2.1860    -3.7180     0.8550 ha         1 RL3       0.138000
     29 H2           0.4330     0.2840    -0.4910 ha         1 RL3       0.120000
     30 H3           1.0500    -4.1940    -0.4540 ho         1 RL3       0.524000
     31 H4          -3.7640    -2.3440     1.4080 ho         1 RL3       0.475000
     32 H5           2.1040     0.0650     1.0560 h4         1 RL3       0.174000
     33 H6           6.3130     0.5980    -0.1120 ha         1 RL3       0.143000
     34 H7           6.1460    -1.4610    -1.5100 ha         1 RL3       0.153000
     35 H9          -7.5560     3.1380    -2.0080 h1         1 RL3       0.032033
     36 H10         -7.4420     1.6660    -2.9950 h1         1 RL3       0.032033
     37 H11         -7.8600     1.5480    -1.2680 h1         1 RL3       0.032033
     38 H12         -3.2650     0.8930    -2.3000 h1         1 RL3       0.060950
     39 H13         -3.5210    -0.5950    -1.3940 h1         1 RL3       0.060950
     40 H14         -5.8470    -0.0320    -0.9410 h1         1 RL3       0.041450
     41 H15         -5.5380     0.1110    -2.6770 h1         1 RL3       0.041450
     42 H16         -5.8080     3.6300    -0.3190 h1         1 RL3       0.041450
     43 H17         -6.0110     2.0530     0.4540 h1         1 RL3       0.041450
     44 H18         -3.7950     2.8900     0.9840 h1         1 RL3       0.060950
     45 H19         -3.4400     3.2390    -0.7130 h1         1 RL3       0.060950
@<TRIPOS>BOND
     1     1     2 ar  
     2     1     6 ar  
     3     1    10 1   
     4     2     3 ar  
     5     2    28 1   
     6     3     4 ar  
     7     3     9 1   
     8     4     5 ar  
     9     4    11 1   
    10     5     6 ar  
    11     5    29 1   
    12     6     7 1   
    13     7     8 2   
    14     7    20 1   
    15     9    30 1   
    16    10    31 1   
    17    11    12 1   
    18    11    15 2   
    19    12    13 1   
    20    12    16 1   
    21    13    14 2   
    22    13    19 1   
    23    14    15 1   
    24    16    17 2   
    25    16    32 1   
    26    17    18 1   
    27    17    23 1   
    28    18    19 2   
    29    18    33 1   
    30    19    34 1   
    31    20    24 1   
    32    20    27 1   
    33    21    22 1   
    34    21    25 1   
    35    21    26 1   
    36    22    35 1   
    37    22    36 1   
    38    22    37 1   
    39    24    25 1   
    40    24    38 1   
    41    24    39 1   
    42    25    40 1   
    43    25    41 1   
    44    26    27 1   
    45    26    42 1   
    46    26    43 1   
    47    27    44 1   
    48    27    45 1   
@<TRIPOS>SUBSTRUCTURE
     1 RL3         1 TEMP              0 ****  ****    0 ROOT
