@<TRIPOS>MOLECULE
RL4
   65    69     1     0     0
SMALL
abcg2


@<TRIPOS>ATOM
      1 CBF        -30.8280    -4.0340    21.0500 c3         1 RL4      -0.077100
      2 CBE        -31.7960    -3.3200    21.9890 c5         1 RL4       0.184500
      3 CBD        -31.4320    -3.5270    23.4760 c5         1 RL4      -0.093400
      4 CBC        -32.4490    -4.5600    23.9720 c5         1 RL4      -0.083400
      5 CBB        -33.6910    -4.1630    23.1920 c5         1 RL4       0.169800
      6 NAU        -33.1780    -3.8560    21.8520 n3         1 RL4      -0.747600
      7 CAT        -34.1080    -3.0510    21.0770 c3         1 RL4       0.179800
      8 CAS        -33.8400    -3.0100    19.5870 c3         1 RL4       0.161600
      9 OAR        -32.7540    -2.1160    19.3270 os         1 RL4      -0.359100
     10 CAO        -32.2700    -2.0310    18.0580 ca         1 RL4       0.140100
     11 CAP        -31.1500    -1.2140    17.8790 ca         1 RL4      -0.171500
     12 CAQ        -30.5880    -1.0650    16.6220 ca         1 RL4      -0.065000
     13 CAN        -32.8060    -2.7030    16.9600 ca         1 RL4      -0.171500
     14 CAM        -32.2260    -2.5370    15.7060 ca         1 RL4      -0.065000
     15 CAL        -31.1210    -1.7150    15.5050 ca         1 RL4      -0.113300
     16 CAJ        -30.5660    -1.5130    14.1060 c6         1 RL4       0.050900
     17 CAF        -29.0510    -1.4360    14.1010 ca         1 RL4      -0.108300
     18 CAA        -28.3180    -2.5960    14.3630 ca         1 RL4      -0.061000
     19 CAB        -26.9330    -2.5930    14.4150 ca         1 RL4      -0.199000
     20 CAC        -26.2500    -1.3960    14.2030 ca         1 RL4       0.134100
     21 OAV        -24.8840    -1.3150    14.2450 oh         1 RL4      -0.541100
     22 CAD        -26.9610    -0.2340    13.9390 ca         1 RL4      -0.147000
     23 CAE        -28.3570    -0.2410    13.8840 ca         1 RL4      -0.035300
     24 CAG        -29.0810     1.0450    13.5570 c6         1 RL4      -0.034100
     25 CAH        -30.5660     1.0100    13.9010 c6         1 RL4      -0.068400
     26 CAI        -31.1920    -0.2820    13.3790 c6         1 RL4      -0.008400
     27 CAK        -32.7000    -0.3170    13.4220 ca         1 RL4      -0.073300
     28 CAW        -33.4320     0.3200    14.4250 ca         1 RL4      -0.104000
     29 CAX        -34.8190     0.2200    14.4700 ca         1 RL4      -0.111000
     30 CAY        -35.5010    -0.5210    13.5100 ca         1 RL4      -0.113000
     31 CAZ        -34.7840    -1.1560    12.5010 ca         1 RL4      -0.111000
     32 CBA        -33.3980    -1.0510    12.4610 ca         1 RL4      -0.104000
     33 H1         -29.8320    -3.5890    21.1190 hc         1 RL4       0.036700
     34 H2         -30.7520    -5.0910    21.3180 hc         1 RL4       0.036700
     35 H3         -31.1600    -3.9650    20.0150 hc         1 RL4       0.036700
     36 H4         -31.7930    -2.2520    21.7500 h1         1 RL4       0.047700
     37 H5         -30.3970    -3.8450    23.6040 hc         1 RL4       0.045700
     38 H6         -31.5620    -2.5940    24.0270 hc         1 RL4       0.045700
     39 H7         -32.6000    -4.5300    25.0510 hc         1 RL4       0.051200
     40 H8         -32.1400    -5.5710    23.6970 hc         1 RL4       0.051200
     41 H9         -34.1590    -3.2800    23.6590 h1         1 RL4       0.033700
     42 H10        -34.4490    -4.9490    23.1390 h1         1 RL4       0.033700
     43 H12        -34.1690    -2.0160    21.4540 h1         1 RL4       0.039700
     44 H13        -35.1010    -3.4910    21.2000 h1         1 RL4       0.039700
     45 H14        -34.7320    -2.6540    19.0610 h1         1 RL4       0.043700
     46 H15        -33.5940    -4.0120    19.2220 h1         1 RL4       0.043700
     47 H16        -30.7290    -0.7090    18.7390 ha         1 RL4       0.120500
     48 H17        -29.7100    -0.4410    16.5120 ha         1 RL4       0.116000
     49 H18        -33.6650    -3.3490    17.0670 ha         1 RL4       0.120500
     50 H19        -32.6580    -3.0570    14.8600 ha         1 RL4       0.116000
     51 H20        -30.8570    -2.3930    13.5270 hc         1 RL4       0.056700
     52 H21        -28.8500    -3.5250    14.5380 ha         1 RL4       0.116000
     53 H22        -26.3830    -3.5050    14.6190 ha         1 RL4       0.114000
     54 H23        -24.5110    -2.1860    14.4390 ho         1 RL4       0.461000
     55 H24        -26.4180     0.6900    13.7770 ha         1 RL4       0.126000
     56 H25        -28.9710     1.2360    12.4830 hc         1 RL4       0.051700
     57 H26        -28.5880     1.8770    14.0640 hc         1 RL4       0.051700
     58 H27        -31.0690     1.8730    13.4610 hc         1 RL4       0.049700
     59 H28        -30.6990     1.0840    14.9820 hc         1 RL4       0.049700
     60 H29        -30.8990    -0.3840    12.3280 hc         1 RL4       0.054700
     61 H30        -32.9190     0.8880    15.1890 ha         1 RL4       0.112000
     62 H31        -35.3670     0.7190    15.2600 ha         1 RL4       0.111000
     63 H32        -36.5810    -0.6000    13.5460 ha         1 RL4       0.111000
     64 H33        -35.3030    -1.7320    11.7440 ha         1 RL4       0.111000
     65 H34        -32.8430    -1.5500    11.6740 ha         1 RL4       0.112000
@<TRIPOS>BOND
     1     1     2 1   
     2     1    33 1   
     3     1    34 1   
     4     1    35 1   
     5     2     3 1   
     6     2     6 1   
     7     2    36 1   
     8     3     4 1   
     9     3    37 1   
    10     3    38 1   
    11     4     5 1   
    12     4    39 1   
    13     4    40 1   
    14     5     6 1   
    15     5    41 1   
    16     5    42 1   
    17     6     7 1   
    18     7     8 1   
    19     7    43 1   
    20     7    44 1   
    21     8     9 1   
    22     8    45 1   
    23     8    46 1   
    24     9    10 1   
    25    10    11 ar  
    26    10    13 ar  
    27    11    12 ar  
    28    11    47 1   
    29    12    15 ar  
    30    12    48 1   
    31    13    14 ar  
    32    13    49 1   
    33    14    15 ar  
    34    14    50 1   
    35    15    16 1   
    36    16    17 1   
    37    16    26 1   
    38    16    51 1   
    39    17    18 ar  
    40    17    23 ar  
    41    18    19 ar  
    42    18    52 1   
    43    19    20 ar  
    44    19    53 1   
    45    20    21 1   
    46    20    22 ar  
    47    21    54 1   
    48    22    23 ar  
    49    22    55 1   
    50    23    24 1   
    51    24    25 1   
    52    24    56 1   
    53    24    57 1   
    54    25    26 1   
    55    25    58 1   
    56    25    59 1   
    57    26    27 1   
    58    26    60 1   
    59    27    28 ar  
    60    27    32 ar  
    61    28    29 ar  
    62    28    61 1   
    63    29    30 ar  
    64    29    62 1   
    65    30    31 ar  
    66    30    63 1   
    67    31    32 ar  
    68    31    64 1   
    69    32    65 1   
@<TRIPOS>SUBSTRUCTURE
     1 RL4         1 TEMP              0 ****  ****    0 ROOT
