@<TRIPOS>MOLECULE
RL4
   65    69     1     0     0
SMALL
No Charge or Current Charge


@<TRIPOS>ATOM
      1 CBF        -31.0410    -4.4570    21.0060 c3         1 RL4      -0.077100
      2 CBE        -31.7740    -3.6090    22.0740 c5         1 RL4       0.184500
      3 CBD        -31.3270    -3.9900    23.5270 c5         1 RL4      -0.093400
      4 CBC        -32.5960    -4.6220    24.1460 c5         1 RL4      -0.083400
      5 CBB        -33.6670    -3.7220    23.5080 c5         1 RL4       0.169800
      6 NAU        -33.2620    -3.8020    22.0870 n3         1 RL4      -0.747600
      7 CAT        -34.0870    -2.9460    21.1790 c3         1 RL4       0.179800
      8 CAS        -33.8000    -3.0170    19.6560 c3         1 RL4       0.161600
      9 OAR        -32.7150    -2.1190    19.3410 os         1 RL4      -0.359100
     10 CAO        -32.2160    -1.9910    18.0620 ca         1 RL4       0.140100
     11 CAP        -31.1410    -1.1110    17.8630 ca         1 RL4      -0.171500
     12 CAQ        -30.5880    -0.9390    16.5830 ca         1 RL4      -0.065000
     13 CAN        -32.7380    -2.7080    16.9650 ca         1 RL4      -0.171500
     14 CAM        -32.1840    -2.5370    15.6840 ca         1 RL4      -0.065000
     15 CAL        -31.1080    -1.6490    15.4810 ca         1 RL4      -0.113300
     16 CAJ        -30.5240    -1.4680    14.0660 c6         1 RL4       0.050900
     17 CAF        -28.9900    -1.3460    14.1050 ca         1 RL4      -0.108300
     18 CAA        -28.2300    -2.4780    14.4620 ca         1 RL4      -0.061000
     19 CAB        -26.8280    -2.4060    14.5270 ca         1 RL4      -0.199000
     20 CAC        -26.1780    -1.1990    14.2370 ca         1 RL4       0.134100
     21 OAV        -24.8190    -1.1230    14.2970 oh         1 RL4      -0.541100
     22 CAD        -26.9240    -0.0660    13.8840 ca         1 RL4      -0.147000
     23 CAE        -28.3290    -0.1250    13.8200 ca         1 RL4      -0.035300
     24 CAG        -29.1030     1.1350    13.4140 c6         1 RL4      -0.034100
     25 CAH        -30.6150     1.0630    13.7220 c6         1 RL4      -0.068400
     26 CAI        -31.1970    -0.3030    13.2780 c6         1 RL4      -0.008400
     27 CAK        -32.7360    -0.3750    13.3190 ca         1 RL4      -0.073300
     28 CAW        -33.4880     0.2670    14.3290 ca         1 RL4      -0.104000
     29 CAX        -34.8890     0.1630    14.3480 ca         1 RL4      -0.111000
     30 CAY        -35.5550    -0.5830    13.3630 ca         1 RL4      -0.113000
     31 CAZ        -34.8170    -1.2300    12.3580 ca         1 RL4      -0.111000
     32 CBA        -33.4150    -1.1280    12.3390 ca         1 RL4      -0.104000
     33 H1         -29.9550    -4.3460    21.1030 hc         1 RL4       0.036700
     34 H2         -31.2780    -5.5210    21.1190 hc         1 RL4       0.036700
     35 H3         -31.3000    -4.1660    19.9850 hc         1 RL4       0.036700
     36 H4         -31.5230    -2.5540    21.8900 h1         1 RL4       0.047700
     37 H5         -30.4730    -4.6760    23.5510 hc         1 RL4       0.045700
     38 H6         -31.0280    -3.0930    24.0810 hc         1 RL4       0.045700
     39 H7         -32.6030    -4.5770    25.2400 hc         1 RL4       0.051200
     40 H8         -32.7200    -5.6710    23.8500 hc         1 RL4       0.051200
     41 H9         -33.6140    -2.6920    23.8920 h1         1 RL4       0.033700
     42 H10        -34.6830    -4.1050    23.6750 h1         1 RL4       0.033700
     43 H12        -34.0140    -1.8950    21.4910 h1         1 RL4       0.039700
     44 H13        -35.1400    -3.2290    21.3100 h1         1 RL4       0.039700
     45 H14        -34.7050    -2.7090    19.1170 h1         1 RL4       0.043700
     46 H15        -33.5680    -4.0510    19.3730 h1         1 RL4       0.043700
     47 H16        -30.7350    -0.5600    18.7060 ha         1 RL4       0.120500
     48 H17        -29.7560    -0.2510    16.4530 ha         1 RL4       0.116000
     49 H18        -33.5700    -3.3960    17.0830 ha         1 RL4       0.120500
     50 H19        -32.6010    -3.0890    14.8450 ha         1 RL4       0.116000
     51 H20        -30.7490    -2.3850    13.5040 hc         1 RL4       0.056700
     52 H21        -28.7300    -3.4170    14.6930 ha         1 RL4       0.116000
     53 H22        -26.2580    -3.2890    14.8040 ha         1 RL4       0.114000
     54 H23        -24.4720    -2.0040    14.5560 ho         1 RL4       0.461000
     55 H24        -26.4080     0.8640    13.6590 ha         1 RL4       0.126000
     56 H25        -28.9640     1.2990    12.3370 hc         1 RL4       0.051700
     57 H26        -28.6750     2.0160    13.9120 hc         1 RL4       0.051700
     58 H27        -31.1340     1.8820    13.2050 hc         1 RL4       0.049700
     59 H28        -30.7740     1.2220    14.7960 hc         1 RL4       0.049700
     60 H29        -30.9040    -0.4260    12.2250 hc         1 RL4       0.054700
     61 H30        -32.9940     0.8350    15.1120 ha         1 RL4       0.112000
     62 H31        -35.4590     0.6590    15.1320 ha         1 RL4       0.111000
     63 H32        -36.6390    -0.6630    13.3790 ha         1 RL4       0.111000
     64 H33        -35.3300    -1.8120    11.5960 ha         1 RL4       0.111000
     65 H34        -32.8550    -1.6390    11.5580 ha         1 RL4       0.112000
@<TRIPOS>BOND
     1     1     2 1   
     2     1    33 1   
     3     1    34 1   
     4     1    35 1   
     5     2     3 1   
     6     2     6 1   
     7     2    36 1   
     8     3     4 1   
     9     3    37 1   
    10     3    38 1   
    11     4     5 1   
    12     4    39 1   
    13     4    40 1   
    14     5     6 1   
    15     5    41 1   
    16     5    42 1   
    17     6     7 1   
    18     7     8 1   
    19     7    43 1   
    20     7    44 1   
    21     8     9 1   
    22     8    45 1   
    23     8    46 1   
    24     9    10 1   
    25    10    11 ar  
    26    10    13 ar  
    27    11    12 ar  
    28    11    47 1   
    29    12    15 ar  
    30    12    48 1   
    31    13    14 ar  
    32    13    49 1   
    33    14    15 ar  
    34    14    50 1   
    35    15    16 1   
    36    16    17 1   
    37    16    26 1   
    38    16    51 1   
    39    17    18 ar  
    40    17    23 ar  
    41    18    19 ar  
    42    18    52 1   
    43    19    20 ar  
    44    19    53 1   
    45    20    21 1   
    46    20    22 ar  
    47    21    54 1   
    48    22    23 ar  
    49    22    55 1   
    50    23    24 1   
    51    24    25 1   
    52    24    56 1   
    53    24    57 1   
    54    25    26 1   
    55    25    58 1   
    56    25    59 1   
    57    26    27 1   
    58    26    60 1   
    59    27    28 ar  
    60    27    32 ar  
    61    28    29 ar  
    62    28    61 1   
    63    29    30 ar  
    64    29    62 1   
    65    30    31 ar  
    66    30    63 1   
    67    31    32 ar  
    68    31    64 1   
    69    32    65 1   
@<TRIPOS>SUBSTRUCTURE
     1 RL4         1 TEMP              0 ****  ****    0 ROOT
