@<TRIPOS>MOLECULE
RL5
   35    36     1     0     0
SMALL
abcg2


@<TRIPOS>ATOM
      1 C18        -47.3960   -29.6740     3.6620 cc         1 RL5      -0.221000
      2 C17        -46.0900   -29.8910     3.2880 cd         1 RL5       0.219500
      3 C15        -46.0380   -28.9620     5.2310 cc         1 RL5       0.330400
      4 C12        -49.1400   -29.9120     6.3860 c3         1 RL5       0.080000
      5 C19        -45.6030   -30.5070     2.0010 c          1 RL5       0.624500
      6 C01        -56.5960   -28.8750    11.3360 c3         1 RL5      -0.119100
      7 C02        -56.1330   -27.5530    10.7320 c3         1 RL5       0.230800
      8 C04        -54.4880   -28.1250     8.9950 cc         1 RL5       0.707300
      9 C06        -52.3880   -28.7740     9.2000 cd         1 RL5       0.355900
     10 C07        -52.4560   -28.8680     7.8390 cc         1 RL5      -0.323600
     11 C09        -51.4720   -29.2780     6.8360 c          1 RL5       0.640700
     12 N05        -53.5120   -28.3650     9.8530 nd         1 RL5      -0.752000
     13 N11        -50.2150   -29.5260     7.2760 ns         1 RL5      -0.497900
     14 N14        -47.3530   -29.0770     4.8970 na         1 RL5      -0.208500
     15 N16        -45.2510   -29.4340     4.2900 nd         1 RL5      -0.637000
     16 O10        -51.7880   -29.3990     5.6440 o          1 RL5      -0.605100
     17 O20        -44.3620   -30.5520     1.8080 o          1 RL5      -0.720000
     18 O21        -46.4950   -30.9300     1.2160 o          1 RL5      -0.720000
     19 S08        -54.0630   -28.4110     7.3150 ss         1 RL5      -0.028400
     20 H181       -48.3270   -29.8800     3.1630 h4         1 RL5       0.157000
     21 H151       -45.7270   -28.5220     6.1670 h5         1 RL5       0.021100
     22 H131       -48.1240   -28.0060     6.4860 h1         1 RL5       0.052200
     23 H132       -49.2150   -28.1690     5.1060 h1         1 RL5       0.052200
     24 H121       -49.5350   -30.5800     5.6220 h1         1 RL5       0.072200
     25 H122       -48.3950   -30.4550     6.9670 h1         1 RL5       0.072200
     26 H011       -56.9120   -28.7230    12.3700 hc         1 RL5       0.043700
     27 H012       -57.4390   -29.2820    10.7750 hc         1 RL5       0.043700
     28 H013       -55.7870   -29.6080    11.3280 hc         1 RL5       0.043700
     29 H021       -55.3030   -27.1410    11.3050 h1         1 RL5       0.057200
     30 H022       -56.9420   -26.8230    10.7470 h1         1 RL5       0.057200
     31 H061       -51.5110   -29.0130     9.7870 h4         1 RL5       0.033100
     32 H031       -56.4110   -27.6190     8.6270 hn         1 RL5       0.496000
     33 H111       -49.9790   -29.3230     8.2330 hn         1 RL5       0.307500
     34 C13        -48.4860   -28.6940     5.7220 c3         1 RL5       0.060600
     35 N03        -55.7030   -27.6770     9.3420 nu         1 RL5      -0.924100
@<TRIPOS>BOND
     1     1     2 2   
     2     1    14 1   
     3     1    20 1   
     4     2     5 1   
     5     2    15 1   
     6     3    14 1   
     7     3    15 2   
     8     3    21 1   
     9     4    13 1   
    10     4    24 1   
    11     4    25 1   
    12     4    34 1   
    13     5    17 1   
    14     5    18 1   
    15     6     7 1   
    16     6    26 1   
    17     6    27 1   
    18     6    28 1   
    19     7    29 1   
    20     7    30 1   
    21     7    35 1   
    22     8    12 2   
    23     8    19 1   
    24     8    35 1   
    25     9    10 2   
    26     9    12 1   
    27     9    31 1   
    28    10    11 1   
    29    10    19 1   
    30    11    13 1   
    31    11    16 2   
    32    13    33 1   
    33    14    34 1   
    34    22    34 1   
    35    23    34 1   
    36    32    35 1   
@<TRIPOS>SUBSTRUCTURE
     1 RL5         1 TEMP              0 ****  ****    0 ROOT
