@<TRIPOS>MOLECULE
RL5
   35    36     1     0     0
SMALL
No Charge or Current Charge


@<TRIPOS>ATOM
      1 C18        -47.2920   -29.6690     3.6410 cc         1 RL5      -0.221000
      2 C17        -45.9600   -29.8630     3.3370 cd         1 RL5       0.219500
      3 C15        -46.0200   -28.9850     5.3280 cc         1 RL5       0.330400
      4 C12        -49.1440   -29.9150     6.4300 c3         1 RL5       0.080000
      5 C19        -45.5150   -30.4670     2.0070 c          1 RL5       0.624500
      6 C01        -56.6180   -28.8380    11.4660 c3         1 RL5      -0.119100
      7 C02        -56.0730   -27.5460    10.8350 c3         1 RL5       0.230800
      8 C04        -54.5130   -28.1690     8.9250 cc         1 RL5       0.707300
      9 C06        -52.3840   -28.7500     9.0190 cd         1 RL5       0.355900
     10 C07        -52.5830   -28.8450     7.6610 cc         1 RL5      -0.323600
     11 C09        -51.5600   -29.2380     6.6790 c          1 RL5       0.640700
     12 N05        -53.5010   -28.3590     9.7450 nd         1 RL5      -0.752000
     13 N11        -50.3240   -29.5250     7.2150 ns         1 RL5      -0.497900
     14 N14        -47.3230   -29.1140     4.9010 na         1 RL5      -0.208500
     15 N16        -45.1770   -29.4270     4.4100 nd         1 RL5      -0.637000
     16 O10        -51.7780   -29.3100     5.4800 o          1 RL5      -0.605100
     17 O20        -44.3160   -30.6170     1.7890 o          1 RL5      -0.720000
     18 O21        -46.3620   -30.7920     1.1810 o          1 RL5      -0.720000
     19 S08        -54.2200   -28.4370     7.2260 ss         1 RL5      -0.028400
     20 H181       -48.1820   -29.8830     3.0620 h4         1 RL5       0.157000
     21 H151       -45.7610   -28.5730     6.2960 h5         1 RL5       0.021100
     22 H131       -48.2590   -27.9380     6.3660 h1         1 RL5       0.052200
     23 H132       -49.2640   -28.3240     4.9570 h1         1 RL5       0.052200
     24 H121       -49.4310   -30.7040     5.7210 h1         1 RL5       0.072200
     25 H122       -48.3920   -30.3350     7.1120 h1         1 RL5       0.072200
     26 H011       -56.8890   -28.6610    12.5130 hc         1 RL5       0.043700
     27 H012       -57.5120   -29.1840    10.9330 hc         1 RL5       0.043700
     28 H013       -55.8640   -29.6330    11.4360 hc         1 RL5       0.043700
     29 H021       -55.2000   -27.2010    11.4070 h1         1 RL5       0.057200
     30 H022       -56.8410   -26.7630    10.9050 h1         1 RL5       0.057200
     31 H061       -51.4600   -28.9490     9.5490 h4         1 RL5       0.033100
     32 H031       -56.4440   -27.6530     8.7190 hn         1 RL5       0.496000
     33 H111       -50.2270   -29.4480     8.2190 hn         1 RL5       0.307500
     34 C13        -48.5250   -28.7320     5.6580 c3         1 RL5       0.060600
     35 N03        -55.7220   -27.7790     9.4250 nu         1 RL5      -0.924100
@<TRIPOS>BOND
     1     1     2 2   
     2     1    14 1   
     3     1    20 1   
     4     2     5 1   
     5     2    15 1   
     6     3    14 1   
     7     3    15 2   
     8     3    21 1   
     9     4    13 1   
    10     4    24 1   
    11     4    25 1   
    12     4    34 1   
    13     5    17 1   
    14     5    18 1   
    15     6     7 1   
    16     6    26 1   
    17     6    27 1   
    18     6    28 1   
    19     7    29 1   
    20     7    30 1   
    21     7    35 1   
    22     8    12 2   
    23     8    19 1   
    24     8    35 1   
    25     9    10 2   
    26     9    12 1   
    27     9    31 1   
    28    10    11 1   
    29    10    19 1   
    30    11    13 1   
    31    11    16 2   
    32    13    33 1   
    33    14    34 1   
    34    22    34 1   
    35    23    34 1   
    36    32    35 1   
@<TRIPOS>SUBSTRUCTURE
     1 RL5         1 TEMP              0 ****  ****    0 ROOT
