@<TRIPOS>MOLECULE
RL8
   41    43     1     0     0
SMALL
abcg2


@<TRIPOS>ATOM
      1 N1         -16.8500     4.3650    26.8800 nb         1 RL8      -0.639000
      2 C4         -16.6990     7.2370    24.5670 ca         1 RL8      -0.083000
      3 C5         -17.1590     6.3610    25.5750 ca         1 RL8      -0.076000
      4 C6         -16.4490     5.1940    25.9420 ca         1 RL8       0.345900
      5 C7         -18.0110     4.6360    27.5240 ca         1 RL8       0.328900
      6 C8         -18.7870     5.7390    27.2610 ca         1 RL8      -0.068000
      7 C10        -21.5810     6.0950    29.7920 c3         1 RL8      -0.107100
      8 C13        -22.6250     3.1310    31.9400 ca         1 RL8      -0.099000
      9 C15        -23.1190     2.6380    29.6570 ca         1 RL8       0.125000
     10 C17        -18.3670     6.6610    26.2640 ca         1 RL8      -0.037000
     11 CL         -23.7370     1.5360    28.4410 cl         1 RL8      -0.212000
     12 C14        -23.1190     2.2450    30.9890 ca         1 RL8      -0.095000
     13 C12        -22.1410     4.3780    31.5610 ca         1 RL8      -0.085000
     14 C16        -22.6440     3.8780    29.2620 ca         1 RL8      -0.100000
     15 C11        -22.1480     4.7620    30.2210 ca         1 RL8      -0.077300
     16 C9         -20.1490     5.9080    29.3070 c          1 RL8       0.604100
     17 O1         -19.2270     5.7000    30.0830 o          1 RL8      -0.568100
     18 N2         -19.9960     5.9550    27.9540 ns         1 RL8      -0.163000
     19 C3         -17.4080     8.3660    24.2520 ca         1 RL8      -0.098000
     20 C18        -19.0630     7.8440    25.9380 ca         1 RL8      -0.048000
     21 C2         -18.6020     8.6780    24.9460 ca         1 RL8      -0.132600
     22 C1         -19.3920     9.9240    24.6600 c          1 RL8       0.602700
     23 O          -20.0820    10.4560    25.5340 o          1 RL8      -0.605100
     24 N          -19.3100    10.4140    23.4120 ns         1 RL8      -0.502900
     25 C          -20.0360    11.6040    23.0040 c3         1 RL8       0.095300
     26 H1         -15.7740     7.0070    24.0530 ha         1 RL8       0.122000
     27 H2         -15.5220     4.9580    25.4280 h4         1 RL8       0.024100
     28 H3         -18.3220     3.9250    28.2780 h4         1 RL8       0.040100
     29 H4         -21.5490     6.7780    30.6400 hc         1 RL8       0.073200
     30 H5         -22.2010     6.5370    29.0120 hc         1 RL8       0.073200
     31 H6         -22.6210     2.8430    32.9830 ha         1 RL8       0.122000
     32 H7         -23.4980     1.2740    31.2740 ha         1 RL8       0.132000
     33 H8         -21.7590     5.0610    32.3090 ha         1 RL8       0.125000
     34 H9         -22.6570     4.1560    28.2160 ha         1 RL8       0.124000
     35 H10        -20.8010     6.2220    27.4070 hn         1 RL8       0.157000
     36 H11        -17.0290     9.0350    23.4910 ha         1 RL8       0.116000
     37 H12        -19.9640     8.1130    26.4700 ha         1 RL8       0.135000
     38 H13        -18.8110     9.8980    22.7070 hn         1 RL8       0.317500
     39 H14        -19.7540    11.8450    21.9820 h1         1 RL8       0.043700
     40 H15        -21.1160    11.4440    23.0500 h1         1 RL8       0.043700
     41 H16        -19.7870    12.4440    23.6540 h1         1 RL8       0.043700
@<TRIPOS>BOND
     1     1     4 ar  
     2     1     5 ar  
     3     2     3 ar  
     4     2    19 ar  
     5     2    26 1   
     6     3     4 ar  
     7     3    10 ar  
     8     4    27 1   
     9     5     6 ar  
    10     5    28 1   
    11     6    10 ar  
    12     6    18 1   
    13     7    15 1   
    14     7    16 1   
    15     7    29 1   
    16     7    30 1   
    17     8    12 ar  
    18     8    13 ar  
    19     8    31 1   
    20     9    11 1   
    21     9    12 ar  
    22     9    14 ar  
    23    10    20 ar  
    24    12    32 1   
    25    13    15 ar  
    26    13    33 1   
    27    14    15 ar  
    28    14    34 1   
    29    16    17 2   
    30    16    18 1   
    31    18    35 1   
    32    19    21 ar  
    33    19    36 1   
    34    20    21 ar  
    35    20    37 1   
    36    21    22 1   
    37    22    23 2   
    38    22    24 1   
    39    24    25 1   
    40    24    38 1   
    41    25    39 1   
    42    25    40 1   
    43    25    41 1   
@<TRIPOS>SUBSTRUCTURE
     1 RL8         1 TEMP              0 ****  ****    0 ROOT
