@<TRIPOS>MOLECULE
RL8
   41    43     1     0     0
SMALL
No Charge or Current Charge


@<TRIPOS>ATOM
      1 N1         -16.1520     4.7060    27.1840 nb         1 RL8      -0.639000
      2 C4         -16.8050     7.1350    24.4760 ca         1 RL8      -0.083000
      3 C5         -16.9770     6.4100    25.6680 ca         1 RL8      -0.076000
      4 C6         -16.0360     5.4360    26.0530 ca         1 RL8       0.345900
      5 C7         -17.2240     4.9370    27.9760 ca         1 RL8       0.328900
      6 C8         -18.2250     5.8990    27.6860 ca         1 RL8      -0.068000
      7 C10        -21.0020     6.0880    30.3620 c3         1 RL8      -0.107100
      8 C13        -22.9380     2.9080    31.3090 ca         1 RL8      -0.099000
      9 C15        -23.6200     3.5900    29.0780 ca         1 RL8       0.125000
     10 C17        -18.0950     6.6530    26.4920 ca         1 RL8      -0.037000
     11 Cl         -24.5950     3.3310    27.6360 cl         1 RL8      -0.212000
     12 C14        -23.7190     2.7000    30.1590 ca         1 RL8      -0.095000
     13 C12        -22.0610     4.0050    31.3750 ca         1 RL8      -0.085000
     14 C16        -22.7440     4.6870    29.1420 ca         1 RL8      -0.100000
     15 C11        -21.9590     4.9020    30.2930 ca         1 RL8      -0.077300
     16 C9         -19.6140     5.6950    29.8410 c          1 RL8       0.604100
     17 O1         -18.8210     5.0680    30.5330 o          1 RL8      -0.568100
     18 N2         -19.3510     6.1060    28.5400 ns         1 RL8      -0.163000
     19 C3         -17.7440     8.1060    24.0950 ca         1 RL8      -0.098000
     20 C18        -19.0370     7.6340    26.1040 ca         1 RL8      -0.048000
     21 C2         -18.8750     8.3700    24.9060 ca         1 RL8      -0.132600
     22 C1         -19.9120     9.4120    24.5310 c          1 RL8       0.602700
     23 O          -20.8900     9.6420    25.2300 o          1 RL8      -0.605100
     24 N          -19.7060    10.1000    23.3550 ns         1 RL8      -0.502900
     25 C          -20.6000    11.1380    22.8360 c3         1 RL8       0.095300
     26 H1         -15.9410     6.9460    23.8410 ha         1 RL8       0.122000
     27 H2         -15.1630     5.2290    25.4350 h4         1 RL8       0.024100
     28 H3         -17.2770     4.3050    28.8600 h4         1 RL8       0.040100
     29 H4         -20.9040     6.4210    31.4020 hc         1 RL8       0.073200
     30 H5         -21.4060     6.9080    29.7570 hc         1 RL8       0.073200
     31 H6         -23.0110     2.2190    32.1480 ha         1 RL8       0.122000
     32 H7         -24.3970     1.8530    30.1050 ha         1 RL8       0.132000
     33 H8         -21.4570     4.1560    32.2680 ha         1 RL8       0.125000
     34 H9         -22.6780     5.3670    28.2960 ha         1 RL8       0.124000
     35 H10        -20.1020     6.6330    28.1150 hn         1 RL8       0.157000
     36 H11        -17.5750     8.6440    23.1670 ha         1 RL8       0.116000
     37 H12        -19.9020     7.8390    26.7280 ha         1 RL8       0.135000
     38 H13        -18.8790     9.8640    22.8220 hn         1 RL8       0.317500
     39 H14        -20.2050    11.5230    21.8870 h1         1 RL8       0.043700
     40 H15        -21.5990    10.7160    22.6680 h1         1 RL8       0.043700
     41 H16        -20.6690    11.9620    23.5590 h1         1 RL8       0.043700
@<TRIPOS>BOND
     1     1     4 ar  
     2     1     5 ar  
     3     2     3 ar  
     4     2    19 ar  
     5     2    26 1   
     6     3     4 ar  
     7     3    10 ar  
     8     4    27 1   
     9     5     6 ar  
    10     5    28 1   
    11     6    10 ar  
    12     6    18 1   
    13     7    15 1   
    14     7    16 1   
    15     7    29 1   
    16     7    30 1   
    17     8    12 ar  
    18     8    13 ar  
    19     8    31 1   
    20     9    11 1   
    21     9    12 ar  
    22     9    14 ar  
    23    10    20 ar  
    24    12    32 1   
    25    13    15 ar  
    26    13    33 1   
    27    14    15 ar  
    28    14    34 1   
    29    16    17 2   
    30    16    18 1   
    31    18    35 1   
    32    19    21 ar  
    33    19    36 1   
    34    20    21 ar  
    35    20    37 1   
    36    21    22 1   
    37    22    23 2   
    38    22    24 1   
    39    24    25 1   
    40    24    38 1   
    41    25    39 1   
    42    25    40 1   
    43    25    41 1   
@<TRIPOS>SUBSTRUCTURE
     1 RL8         1 TEMP              0 ****  ****    0 ROOT
