@<TRIPOS>MOLECULE
RL9
   35    37     1     0     0
SMALL
No Charge or Current Charge


@<TRIPOS>ATOM
      1 C19        -23.6500     1.8130    13.4370 cc         1 RL9      -0.178100
      2 C20        -24.7070     2.3520    14.1570 cd         1 RL9      -0.226200
      3 C21        -24.2680     3.4840    14.9310 ca         1 RL9      -0.116800
      4 C22        -24.9510     4.3430    15.8000 ca         1 RL9      -0.006000
      5 C23        -22.8480     8.9280    20.4670 ca         1 RL9      -0.054000
      6 C10        -24.7190     8.3190    18.8670 c3         1 RL9       0.167300
      7 C16        -22.1760     4.6280    15.2540 ca         1 RL9      -0.140000
      8 C17        -22.9380     3.6160    14.6650 ca         1 RL9      -0.031200
      9 C15        -22.8240     5.5190    16.1390 ca         1 RL9      -0.053000
     10 C14        -24.2180     5.3880    16.4230 ca         1 RL9      -0.171600
     11 C12        -24.9410     6.3260    17.3650 c          1 RL9       0.615700
     12 C04        -21.8160     9.7830    20.9240 ca         1 RL9      -0.139600
     13 C05        -21.5700    10.9840    20.2200 ca         1 RL9      -0.064000
     14 C06        -22.3360    11.3180    19.0900 ca         1 RL9      -0.176000
     15 C07        -23.3540    10.4610    18.6500 ca         1 RL9       0.132000
     16 C09        -23.6190     9.2610    19.3350 ca         1 RL9      -0.172300
     17 N11        -24.1910     7.3220    17.9430 ns         1 RL9      -0.500900
     18 N18        -22.5460     2.6280    13.7750 na         1 RL9      -0.235700
     19 O01        -21.2410     8.3740    22.7330 o          1 RL9      -0.721000
     20 O03        -20.1030    10.1800    22.5020 o          1 RL9      -0.721000
     21 O13        -26.1350     6.2130    17.6080 o          1 RL9      -0.610100
     22 H191       -23.5930     0.9690    12.7530 h4         1 RL9       0.204000
     23 H201       -25.7250     1.9670    14.1350 ha         1 RL9       0.201000
     24 H221       -26.0140     4.2040    15.9850 ha         1 RL9       0.133000
     25 H231       -23.0530     7.9970    20.9920 ha         1 RL9       0.129000
     26 H102       -25.5190     8.8830    18.3690 h1         1 RL9       0.053700
     27 H101       -25.1590     7.8040    19.7320 h1         1 RL9       0.053700
     28 H161       -21.1140     4.7290    15.0390 ha         1 RL9       0.115000
     29 H151       -22.2280     6.3050    16.5960 ha         1 RL9       0.126000
     30 H051       -20.7840    11.6630    20.5450 ha         1 RL9       0.133000
     31 H061       -22.1380    12.2430    18.5540 ha         1 RL9       0.106000
     32 H111       -23.2110     7.3680    17.7010 hn         1 RL9       0.310500
     33 H181       -21.6010     2.5120    13.4210 hn         1 RL9       0.345000
     34 C02        -20.9900     9.4170    22.1460 c          1 RL9       0.708600
     35 F08        -24.0740    10.8020    17.5580 f          1 RL9      -0.219000
@<TRIPOS>BOND
     1     1     2 2   
     2     1    18 1   
     3     1    22 1   
     4     2     3 1   
     5     2    23 1   
     6     3     4 ar  
     7     3     8 ar  
     8     4    10 ar  
     9     4    24 1   
    10     5    12 ar  
    11     5    16 ar  
    12     5    25 1   
    13     6    16 1   
    14     6    17 1   
    15     6    26 1   
    16     6    27 1   
    17     7     8 ar  
    18     7     9 ar  
    19     7    28 1   
    20     8    18 1   
    21     9    10 ar  
    22     9    29 1   
    23    10    11 1   
    24    11    17 1   
    25    11    21 2   
    26    12    13 ar  
    27    12    34 1   
    28    13    14 ar  
    29    13    30 1   
    30    14    15 ar  
    31    14    31 1   
    32    15    16 ar  
    33    15    35 1   
    34    17    32 1   
    35    18    33 1   
    36    19    34 1   
    37    20    34 1   
@<TRIPOS>SUBSTRUCTURE
     1 RL9         1 TEMP              0 ****  ****    0 ROOT
