@<TRIPOS>MOLECULE
RL9
   35    37     1     0     0
SMALL
abcg2


@<TRIPOS>ATOM
      1 C19        -23.0190     2.3150    13.4570 cc         1 RL9      -0.178100
      2 C20        -23.8000     3.4370    13.3950 cd         1 RL9      -0.226200
      3 C21        -23.6910     4.0920    14.6680 ca         1 RL9      -0.116800
      4 C22        -24.2330     5.2560    15.2150 ca         1 RL9      -0.006000
      5 C23        -22.7020     8.8030    19.3010 ca         1 RL9      -0.054000
      6 C10        -25.1560     8.1070    19.0860 c3         1 RL9       0.167300
      7 C16        -22.4860     3.6510    16.7710 ca         1 RL9      -0.140000
      8 C17        -22.8170     3.2980    15.4640 ca         1 RL9      -0.031200
      9 C15        -23.0500     4.8010    17.2910 ca         1 RL9      -0.053000
     10 C14        -23.9250     5.6050    16.5250 ca         1 RL9      -0.171600
     11 C12        -24.5250     6.8590    17.0690 c          1 RL9       0.615700
     12 C04        -21.7120     9.7180    19.6620 ca         1 RL9      -0.139600
     13 C05        -22.0960    10.9550    20.1770 ca         1 RL9      -0.064000
     14 C06        -23.4410    11.2730    20.3300 ca         1 RL9      -0.176000
     15 C07        -24.3830    10.3310    19.9640 ca         1 RL9       0.132000
     16 C09        -24.0560     9.0850    19.4460 ca         1 RL9      -0.172300
     17 N11        -24.6880     6.9180    18.4110 ns         1 RL9      -0.500900
     18 N18        -22.4270     2.2310    14.6990 na         1 RL9      -0.235700
     19 O01        -19.9680     8.2490    18.9850 o          1 RL9      -0.721000
     20 O03        -19.3990    10.2150    19.9020 o          1 RL9      -0.721000
     21 O13        -24.8700     7.7880    16.3320 o          1 RL9      -0.610100
     22 H191       -22.8300     1.5580    12.7130 h4         1 RL9       0.204000
     23 H201       -24.3820     3.7590    12.5470 ha         1 RL9       0.201000
     24 H221       -24.8940     5.8870    14.6370 ha         1 RL9       0.133000
     25 H231       -22.3980     7.8480    18.8980 ha         1 RL9       0.129000
     26 H102       -25.8870     8.6000    18.4460 h1         1 RL9       0.053700
     27 H101       -25.6800     7.7960    19.9920 h1         1 RL9       0.053700
     28 H161       -21.8030     3.0500    17.3590 ha         1 RL9       0.115000
     29 H151       -22.7790     5.1010    18.2940 ha         1 RL9       0.126000
     30 H051       -21.3330    11.6670    20.4580 ha         1 RL9       0.133000
     31 H061       -23.7610    12.2290    20.7240 ha         1 RL9       0.106000
     32 H111       -24.4190     6.1280    18.9730 hn         1 RL9       0.310500
     33 H181       -21.8070     1.4960    14.9960 hn         1 RL9       0.345000
     34 C02        -20.2340     9.3640    19.5020 c          1 RL9       0.708600
     35 F08        -25.7030    10.6350    20.1200 f          1 RL9      -0.219000
@<TRIPOS>BOND
     1     1     2 2   
     2     1    18 1   
     3     1    22 1   
     4     2     3 1   
     5     2    23 1   
     6     3     4 ar  
     7     3     8 ar  
     8     4    10 ar  
     9     4    24 1   
    10     5    12 ar  
    11     5    16 ar  
    12     5    25 1   
    13     6    16 1   
    14     6    17 1   
    15     6    26 1   
    16     6    27 1   
    17     7     8 ar  
    18     7     9 ar  
    19     7    28 1   
    20     8    18 1   
    21     9    10 ar  
    22     9    29 1   
    23    10    11 1   
    24    11    17 1   
    25    11    21 2   
    26    12    13 ar  
    27    12    34 1   
    28    13    14 ar  
    29    13    30 1   
    30    14    15 ar  
    31    14    31 1   
    32    15    16 ar  
    33    15    35 1   
    34    17    32 1   
    35    18    33 1   
    36    19    34 1   
    37    20    34 1   
@<TRIPOS>SUBSTRUCTURE
     1 RL9         1 TEMP              0 ****  ****    0 ROOT
