@<TRIPOS>MOLECULE
RLA
   41    42     1     0     0
SMALL
No Charge or Current Charge


@<TRIPOS>ATOM
      1 C1           8.2230   103.5300    13.0990 ca         1 RLA      -0.203300
      2 C10         13.0440   103.4930    16.7680 cc         1 RLA      -0.126300
      3 C11         11.8200   104.1100    18.6050 cc         1 RLA      -0.253600
      4 C12         11.3460   104.8060    17.5140 cd         1 RLA      -0.036300
      5 C13         10.2110   105.8060    17.5000 c3         1 RLA      -0.026800
      6 C14         14.0830   102.7700    15.9510 c3         1 RLA      -0.034800
      7 C15         11.3110   104.1990    19.9950 c          1 RLA       0.638700
      8 C16         11.6730   103.3790    22.2550 c3         1 RLA       0.171600
      9 C17         12.2980   104.6340    22.8990 c3         1 RLA      -0.122100
     10 C2           8.5360   104.9060    13.1240 ca         1 RLA      -0.059000
     11 C3           9.7260   105.3570    13.7230 ca         1 RLA      -0.116000
     12 C4          10.6200   104.4430    14.3120 ca         1 RLA      -0.040300
     13 C5          10.3070   103.0710    14.2940 ca         1 RLA      -0.116000
     14 C6           9.1190   102.6170    13.6970 ca         1 RLA      -0.059000
     15 C7           6.9200   103.0380    12.4570 c3         1 RLA       0.357300
     16 C8          11.9100   104.9300    14.9650 c3         1 RLA       0.044200
     17 C9          12.1090   104.4170    16.3760 cd         1 RLA      -0.180300
     18 F1           6.5190   103.8290    11.4350 f          1 RLA      -0.115333
     19 F2           5.9110   103.0120    13.3560 f          1 RLA      -0.115333
     20 F3           7.0340   101.7870    11.9540 f          1 RLA      -0.115333
     21 N1          12.8630   103.3120    18.1350 na         1 RLA      -0.068000
     22 O1          10.3760   104.9060    20.3480 o          1 RLA      -0.483000
     23 O2          11.9930   103.3670    20.8490 os         1 RLA      -0.471100
     24 H132         9.2630   105.3250    17.7660 hc         1 RLA       0.049033
     25 H133        10.3930   106.6150    18.2160 hc         1 RLA       0.049033
     26 H131        10.0760   106.2720    16.5180 hc         1 RLA       0.049033
     27 H143        14.8210   103.4750    15.5500 hc         1 RLA       0.051033
     28 H141        14.6200   102.0270    16.5520 hc         1 RLA       0.051033
     29 H142        13.6210   102.2470    15.1060 hc         1 RLA       0.051033
     30 H162        10.5880   103.3600    22.4240 h1         1 RLA       0.058700
     31 H161        12.1000   102.4920    22.7410 h1         1 RLA       0.058700
     32 H171        12.1390   104.6190    23.9830 hc         1 RLA       0.048033
     33 H173        13.3780   104.6650    22.7130 hc         1 RLA       0.048033
     34 H172        11.8480   105.5530    22.5050 hc         1 RLA       0.048033
     35 H21          7.8580   105.6340    12.6830 ha         1 RLA       0.127500
     36 H31          9.9480   106.4210    13.7290 ha         1 RLA       0.121000
     37 H51         10.9850   102.3530    14.7490 ha         1 RLA       0.121000
     38 H61          8.8980   101.5510    13.7050 ha         1 RLA       0.127500
     39 H81         12.7560   104.6320    14.3340 hc         1 RLA       0.055200
     40 H82         11.9400   106.0260    14.9760 hc         1 RLA       0.055200
     41 H1          13.4110   102.6830    18.7150 hn         1 RLA       0.361000
@<TRIPOS>BOND
     1     1    10 ar  
     2     1    14 ar  
     3     1    15 1   
     4     2     6 1   
     5     2    17 2   
     6     2    21 1   
     7     3     4 2   
     8     3     7 1   
     9     3    21 1   
    10     4     5 1   
    11     4    17 1   
    12     5    24 1   
    13     5    25 1   
    14     5    26 1   
    15     6    27 1   
    16     6    28 1   
    17     6    29 1   
    18     7    22 2   
    19     7    23 1   
    20     8     9 1   
    21     8    23 1   
    22     8    30 1   
    23     8    31 1   
    24     9    32 1   
    25     9    33 1   
    26     9    34 1   
    27    10    11 ar  
    28    10    35 1   
    29    11    12 ar  
    30    11    36 1   
    31    12    13 ar  
    32    12    16 1   
    33    13    14 ar  
    34    13    37 1   
    35    14    38 1   
    36    15    18 1   
    37    15    19 1   
    38    15    20 1   
    39    16    17 1   
    40    16    39 1   
    41    16    40 1   
    42    21    41 1   
@<TRIPOS>SUBSTRUCTURE
     1 RLA         1 TEMP              0 ****  ****    0 ROOT
