@<TRIPOS>MOLECULE
RLA
   41    42     1     0     0
SMALL
bcc


@<TRIPOS>ATOM
      1 C1           8.2490   103.5090    13.0750 ca         1 RLA      -0.203300
      2 C10         12.9550   103.5700    16.8200 cc         1 RLA      -0.075600
      3 C11         11.7700   104.2100    18.5980 cc         1 RLA      -0.202900
      4 C12         11.2690   104.9080    17.5090 cd         1 RLA      -0.036300
      5 C13         10.1520   105.8980    17.5020 c3         1 RLA      -0.026800
      6 C14         14.0080   102.8420    16.0610 c3         1 RLA      -0.034800
      7 C15         11.3420   104.2500    19.9790 c          1 RLA       0.687700
      8 C16         11.7590   103.3520    22.1460 c3         1 RLA       0.148400
      9 C17         12.4440   104.4550    22.9230 c3         1 RLA      -0.122100
     10 C2           8.6710   104.8130    12.8630 ca         1 RLA      -0.077000
     11 C3           9.8200   105.2760    13.4890 ca         1 RLA      -0.134000
     12 C4          10.5630   104.4570    14.3310 ca         1 RLA      -0.040300
     13 C5          10.1220   103.1510    14.5400 ca         1 RLA      -0.134000
     14 C6           8.9810   102.6770    13.9190 ca         1 RLA      -0.077000
     15 C7           7.0150   102.9680    12.4300 c3         1 RLA       0.721200
     16 C8          11.8320   104.9620    14.9760 c3         1 RLA       0.044200
     17 C9          12.0220   104.5010    16.3860 cd         1 RLA      -0.180300
     18 F1           6.4320   103.8440    11.6060 f          1 RLA      -0.236633
     19 F2           6.0920   102.6130    13.3380 f          1 RLA      -0.236633
     20 F3           7.2730   101.8660    11.7090 f          1 RLA      -0.236633
     21 N1          12.7900   103.4110    18.1460 na         1 RLA      -0.119100
     22 O1          10.4430   104.9480    20.3960 o          1 RLA      -0.532000
     23 O2          12.0520   103.4180    20.7440 os         1 RLA      -0.447900
     24 H132         9.2010   105.4390    17.7760 hc         1 RLA       0.049033
     25 H133        10.3270   106.7080    18.2090 hc         1 RLA       0.049033
     26 H131        10.0300   106.3400    16.5140 hc         1 RLA       0.049033
     27 H143        14.9130   103.4430    15.9540 hc         1 RLA       0.051033
     28 H141        14.2850   101.9140    16.5590 hc         1 RLA       0.051033
     29 H142        13.6640   102.5910    15.0590 hc         1 RLA       0.051033
     30 H162        10.6800   103.3680    22.3070 h1         1 RLA       0.058700
     31 H161        12.1300   102.3780    22.4600 h1         1 RLA       0.058700
     32 H171        12.2510   104.3160    23.9870 hc         1 RLA       0.048033
     33 H173        13.5240   104.4320    22.7740 hc         1 RLA       0.048033
     34 H172        12.0740   105.4410    22.6440 hc         1 RLA       0.048033
     35 H21          8.1210   105.4830    12.2160 ha         1 RLA       0.145500
     36 H31         10.1370   106.2980    13.3170 ha         1 RLA       0.139000
     37 H51         10.6730   102.4950    15.2020 ha         1 RLA       0.139000
     38 H61          8.6690   101.6560    14.1000 ha         1 RLA       0.145500
     39 H81         12.6800   104.6300    14.3690 hc         1 RLA       0.055200
     40 H82         11.8480   106.0530    14.9220 hc         1 RLA       0.055200
     41 H1          13.3330   102.7860    18.7200 hn         1 RLA       0.310700
@<TRIPOS>BOND
     1     1    10 ar  
     2     1    14 ar  
     3     1    15 1   
     4     2     6 1   
     5     2    17 2   
     6     2    21 1   
     7     3     4 2   
     8     3     7 1   
     9     3    21 1   
    10     4     5 1   
    11     4    17 1   
    12     5    24 1   
    13     5    25 1   
    14     5    26 1   
    15     6    27 1   
    16     6    28 1   
    17     6    29 1   
    18     7    22 2   
    19     7    23 1   
    20     8     9 1   
    21     8    23 1   
    22     8    30 1   
    23     8    31 1   
    24     9    32 1   
    25     9    33 1   
    26     9    34 1   
    27    10    11 ar  
    28    10    35 1   
    29    11    12 ar  
    30    11    36 1   
    31    12    13 ar  
    32    12    16 1   
    33    13    14 ar  
    34    13    37 1   
    35    14    38 1   
    36    15    18 1   
    37    15    19 1   
    38    15    20 1   
    39    16    17 1   
    40    16    39 1   
    41    16    40 1   
    42    21    41 1   
@<TRIPOS>SUBSTRUCTURE
     1 RLA         1 TEMP              0 ****  ****    0 ROOT
