@<TRIPOS>MOLECULE
RLC
   61    64     1     0     0
SMALL
abcg2


@<TRIPOS>ATOM
      1 C7         -64.7070    22.5590    -1.0440 ca         1 RLC       0.203000
      2 N2         -63.8190    22.3680    -5.8190 nu         1 RLC      -0.925100
      3 N1         -66.0330    24.4170     0.9190 nb         1 RLC      -0.650000
      4 C8         -64.4160    21.8470    -2.1930 ca         1 RLC      -0.158000
      5 C9         -63.9590    22.5170    -3.3250 ca         1 RLC      -0.073300
      6 C10        -63.8150    23.9030    -3.2680 ca         1 RLC      -0.118000
      7 C11        -64.1200    24.5940    -2.1050 ca         1 RLC      -0.086000
      8 C12        -63.5690    21.7180    -4.5500 c3         1 RLC       0.274100
      9 C1         -66.3360    25.1190     2.0130 ca         1 RLC       0.339900
     10 C2         -64.8920    24.7060     0.2750 cp         1 RLC       0.403500
     11 C3         -64.0240    25.7070     0.7190 ca         1 RLC      -0.151000
     12 C4         -64.3530    26.4310     1.8550 ca         1 RLC      -0.073000
     13 C5         -65.5350    26.1340     2.5210 ca         1 RLC      -0.161000
     14 C6         -64.5780    23.9420    -0.9540 cp         1 RLC      -0.178500
     15 O1         -60.6790    25.2960    -3.2880 oh         1 RLC      -0.668000
     16 C13        -62.9110    23.1460    -6.4490 ca         1 RLC       0.474900
     17 C14        -60.8150    24.1380    -6.4710 ca         1 RLC       0.451900
     18 C15        -62.1320    24.5100    -8.2380 ca         1 RLC       0.180500
     19 C16        -63.1660    23.7360    -7.7030 ca         1 RLC      -0.146600
     20 C17        -63.8770    24.4380    -9.5830 cc         1 RLC       0.391700
     21 C19        -60.6850    25.1290   -10.9940 c3         1 RLC      -0.107100
     22 C20        -61.6480    27.1930    -9.8640 c3         1 RLC      -0.107100
     23 C21        -59.1500    23.9110    -4.5300 c3         1 RLC       0.268500
     24 C22        -60.1780    23.9610    -3.4080 c3         1 RLC       0.150600
     25 C23        -58.4320    22.5500    -4.5940 c3         1 RLC      -0.090400
     26 C24        -59.2980    21.3450    -4.9500 c3         1 RLC      -0.083100
     27 F1         -65.0970    21.8490     0.0430 f          1 RLC      -0.168000
     28 N3         -61.7290    23.3570    -5.8660 nb         1 RLC      -0.355000
     29 N4         -60.9480    24.7490    -7.6670 nb         1 RLC      -0.302000
     30 N5         -64.2510    23.7040    -8.5640 nd         1 RLC      -0.546100
     31 N6         -62.6070    24.9550    -9.4520 na         1 RLC      -0.301300
     32 N7         -59.6380    24.3670    -5.8320 nu         1 RLC      -0.926100
     33 H21        -64.7380    22.3020    -6.2240 hn         1 RLC       0.517000
     34 H81        -64.5340    20.7710    -2.1890 ha         1 RLC       0.131000
     35 H101       -63.4560    24.4450    -4.1300 ha         1 RLC       0.139000
     36 H111       -64.0140    25.6720    -2.0830 ha         1 RLC       0.120000
     37 H121       -64.0910    20.7610    -4.5410 h1         1 RLC       0.069700
     38 H122       -62.4990    21.5090    -4.4990 h1         1 RLC       0.069700
     39 H11        -67.2680    24.8590     2.5050 h4         1 RLC       0.022100
     40 H31        -63.1040    25.9040     0.1850 ha         1 RLC       0.123000
     41 H41        -63.6940    27.2100     2.2170 ha         1 RLC       0.120000
     42 H51        -65.8330    26.6710     3.4110 ha         1 RLC       0.125000
     43 H12        -61.4390    25.2750    -2.6950 ho         1 RLC       0.441000
     44 H171       -64.4680    24.6450   -10.4620 h5         1 RLC       0.061800
     45 H181       -62.6600    25.9140   -11.2510 h1         1 RLC       0.049700
     46 H193       -60.9310    24.1480   -11.4040 hc         1 RLC       0.051033
     47 H191       -60.2600    25.7410   -11.7910 hc         1 RLC       0.051033
     48 H192       -59.9340    25.0040   -10.2150 hc         1 RLC       0.051033
     49 H202       -62.5660    27.6530    -9.4940 hc         1 RLC       0.051033
     50 H203       -60.9320    27.1290    -9.0440 hc         1 RLC       0.051033
     51 H201       -61.2290    27.8330   -10.6410 hc         1 RLC       0.051033
     52 H211       -58.3860    24.6480    -4.2680 h1         1 RLC       0.052700
     53 H221       -60.9960    23.2710    -3.5960 h1         1 RLC       0.041700
     54 H222       -59.6670    23.6640    -2.4860 h1         1 RLC       0.041700
     55 H231       -57.9520    22.3860    -3.6240 hc         1 RLC       0.042200
     56 H232       -57.6250    22.6440    -5.3250 hc         1 RLC       0.042200
     57 H241       -58.6860    20.4410    -4.9860 hc         1 RLC       0.036367
     58 H243       -60.0890    21.1840    -4.2160 hc         1 RLC       0.036367
     59 H242       -59.7730    21.4720    -5.9220 hc         1 RLC       0.036367
     60 H71        -59.0060    24.9530    -6.3520 hn         1 RLC       0.501000
     61 C18        -61.9350    25.8100   -10.4420 c3         1 RLC       0.108300
@<TRIPOS>BOND
     1     1     4 ar  
     2     1    14 ar  
     3     1    27 1   
     4     2     8 1   
     5     2    16 1   
     6     2    33 1   
     7     3     9 ar  
     8     3    10 ar  
     9     4     5 ar  
    10     4    34 1   
    11     5     6 ar  
    12     5     8 1   
    13     6     7 ar  
    14     6    35 1   
    15     7    14 ar  
    16     7    36 1   
    17     8    37 1   
    18     8    38 1   
    19     9    13 ar  
    20     9    39 1   
    21    10    11 ar  
    22    10    14 1   
    23    11    12 ar  
    24    11    40 1   
    25    12    13 ar  
    26    12    41 1   
    27    13    42 1   
    28    15    24 1   
    29    15    43 1   
    30    16    19 ar  
    31    16    28 ar  
    32    17    28 ar  
    33    17    29 ar  
    34    17    32 1   
    35    18    19 ar  
    36    18    29 ar  
    37    18    31 1   
    38    19    30 1   
    39    20    30 2   
    40    20    31 1   
    41    20    44 1   
    42    21    46 1   
    43    21    47 1   
    44    21    48 1   
    45    21    61 1   
    46    22    49 1   
    47    22    50 1   
    48    22    51 1   
    49    22    61 1   
    50    23    24 1   
    51    23    25 1   
    52    23    32 1   
    53    23    52 1   
    54    24    53 1   
    55    24    54 1   
    56    25    26 1   
    57    25    55 1   
    58    25    56 1   
    59    26    57 1   
    60    26    58 1   
    61    26    59 1   
    62    31    61 1   
    63    32    60 1   
    64    45    61 1   
@<TRIPOS>SUBSTRUCTURE
     1 RLC         1 TEMP              0 ****  ****    0 ROOT
