@<TRIPOS>MOLECULE
RLC
   61    64     1     0     0
SMALL
No Charge or Current Charge


@<TRIPOS>ATOM
      1 C7         -63.5930    22.3340    -1.3540 ca         1 RLC       0.203000
      2 N2         -64.2660    22.4760    -6.2120 nu         1 RLC      -0.925100
      3 N1         -64.3590    23.6420     1.2640 nb         1 RLC      -0.650000
      4 C8         -63.6480    21.6850    -2.5990 ca         1 RLC      -0.158000
      5 C9         -64.2860    22.2880    -3.6990 ca         1 RLC      -0.073300
      6 C10        -64.8950    23.5470    -3.5230 ca         1 RLC      -0.118000
      7 C11        -64.8380    24.1990    -2.2800 ca         1 RLC      -0.086000
      8 C12        -64.3070    21.5650    -5.0500 c3         1 RLC       0.274100
      9 C1         -64.3280    24.2850     2.4530 ca         1 RLC       0.339900
     10 C2         -64.1160    24.3450     0.1340 cp         1 RLC       0.403500
     11 C3         -63.8440    25.7350     0.1760 ca         1 RLC      -0.151000
     12 C4         -63.8100    26.4060     1.4080 ca         1 RLC      -0.073000
     13 C5         -64.0580    25.6590     2.5700 ca         1 RLC      -0.161000
     14 C6         -64.1850    23.6100    -1.1670 cp         1 RLC      -0.178500
     15 O1         -61.7440    25.8510    -3.2000 oh         1 RLC      -0.668000
     16 C13        -63.2180    23.2910    -6.6220 ca         1 RLC       0.474900
     17 C14        -61.2600    24.3920    -6.2080 ca         1 RLC       0.451900
     18 C15        -62.1080    24.5470    -8.3170 ca         1 RLC       0.180500
     19 C16        -63.1670    23.7570    -7.9500 ca         1 RLC      -0.146600
     20 C17        -63.5170    24.2090   -10.0290 cc         1 RLC       0.391700
     21 C19        -60.0440    25.0410   -10.6540 c3         1 RLC      -0.107100
     22 C20        -61.3680    27.1310    -9.9740 c3         1 RLC      -0.107100
     23 C21        -59.9460    24.3710    -3.9480 c3         1 RLC       0.268500
     24 C22        -61.1490    24.5640    -2.9730 c3         1 RLC       0.150600
     25 C23        -59.2470    22.9840    -3.8740 c3         1 RLC      -0.090400
     26 C24        -60.0880    21.7460    -4.2570 c3         1 RLC      -0.083100
     27 F1         -62.9130    21.7280    -0.3550 f          1 RLC      -0.168000
     28 N3         -62.2550    23.6130    -5.7420 nb         1 RLC      -0.355000
     29 N4         -61.1340    24.8830    -7.4530 nb         1 RLC      -0.302000
     30 N5         -64.0630    23.5280    -9.0040 nd         1 RLC      -0.546100
     31 N6         -62.3320    24.8350    -9.6370 na         1 RLC      -0.301300
     32 N7         -60.2470    24.7890    -5.3450 nu         1 RLC      -0.926100
     33 H21        -64.9230    22.2890    -6.9700 hn         1 RLC       0.517000
     34 H81        -63.1740    20.7130    -2.7080 ha         1 RLC       0.131000
     35 H101       -65.4040    24.0300    -4.3540 ha         1 RLC       0.139000
     36 H111       -65.3110    25.1740    -2.1780 ha         1 RLC       0.120000
     37 H121       -65.2210    20.9560    -5.0920 h1         1 RLC       0.069700
     38 H122       -63.4570    20.8690    -5.1000 h1         1 RLC       0.069700
     39 H11        -64.5260    23.6810     3.3380 h4         1 RLC       0.022100
     40 H31        -63.6510    26.2780    -0.7450 ha         1 RLC       0.123000
     41 H41        -63.5980    27.4720     1.4610 ha         1 RLC       0.120000
     42 H51        -64.0450    26.1300     3.5480 ha         1 RLC       0.125000
     43 H12        -61.6260    25.9870    -4.1690 ho         1 RLC       0.441000
     44 H171       -63.9120    24.2850   -11.0350 h5         1 RLC       0.061800
     45 H181       -61.8990    25.7060   -11.4680 h1         1 RLC       0.049700
     46 H193       -60.1310    24.0170   -11.0360 hc         1 RLC       0.051033
     47 H191       -59.4540    25.6220   -11.3730 hc         1 RLC       0.051033
     48 H192       -59.4930    25.0100    -9.7080 hc         1 RLC       0.051033
     49 H202       -62.3740    27.5570    -9.8840 hc         1 RLC       0.051033
     50 H203       -60.8770    27.1960    -8.9960 hc         1 RLC       0.051033
     51 H201       -60.8010    27.7470   -10.6810 hc         1 RLC       0.051033
     52 H211       -59.1820    25.0740    -3.5840 h1         1 RLC       0.052700
     53 H221       -61.8890    23.7740    -3.1440 h1         1 RLC       0.041700
     54 H222       -60.8010    24.4720    -1.9360 h1         1 RLC       0.041700
     55 H231       -58.8900    22.8440    -2.8470 hc         1 RLC       0.042200
     56 H232       -58.3510    23.0060    -4.5050 hc         1 RLC       0.042200
     57 H241       -59.5230    20.8300    -4.0510 hc         1 RLC       0.036367
     58 H243       -61.0190    21.7030    -3.6810 hc         1 RLC       0.036367
     59 H242       -60.3310    21.7500    -5.3250 hc         1 RLC       0.036367
     60 H71        -59.5230    25.3370    -5.8110 hn         1 RLC       0.501000
     61 C18        -61.4420    25.6700   -10.4700 c3         1 RLC       0.108300
@<TRIPOS>BOND
     1     1     4 ar  
     2     1    14 ar  
     3     1    27 1   
     4     2     8 1   
     5     2    16 1   
     6     2    33 1   
     7     3     9 ar  
     8     3    10 ar  
     9     4     5 ar  
    10     4    34 1   
    11     5     6 ar  
    12     5     8 1   
    13     6     7 ar  
    14     6    35 1   
    15     7    14 ar  
    16     7    36 1   
    17     8    37 1   
    18     8    38 1   
    19     9    13 ar  
    20     9    39 1   
    21    10    11 ar  
    22    10    14 1   
    23    11    12 ar  
    24    11    40 1   
    25    12    13 ar  
    26    12    41 1   
    27    13    42 1   
    28    15    24 1   
    29    15    43 1   
    30    16    19 ar  
    31    16    28 ar  
    32    17    28 ar  
    33    17    29 ar  
    34    17    32 1   
    35    18    19 ar  
    36    18    29 ar  
    37    18    31 1   
    38    19    30 1   
    39    20    30 2   
    40    20    31 1   
    41    20    44 1   
    42    21    46 1   
    43    21    47 1   
    44    21    48 1   
    45    21    61 1   
    46    22    49 1   
    47    22    50 1   
    48    22    51 1   
    49    22    61 1   
    50    23    24 1   
    51    23    25 1   
    52    23    32 1   
    53    23    52 1   
    54    24    53 1   
    55    24    54 1   
    56    25    26 1   
    57    25    55 1   
    58    25    56 1   
    59    26    57 1   
    60    26    58 1   
    61    26    59 1   
    62    31    61 1   
    63    32    60 1   
    64    45    61 1   
@<TRIPOS>SUBSTRUCTURE
     1 RLC         1 TEMP              0 ****  ****    0 ROOT
