@<TRIPOS>MOLECULE
RLD
   52    56     1     0     0
SMALL
No Charge or Current Charge


@<TRIPOS>ATOM
      1 C10        140.9800   116.1150   134.1790 c6         1 RLD      -0.074400
      2 C11        141.5400   116.9030   135.3860 c6         1 RLD      -0.096900
      3 C01        139.4500   119.8960   139.7060 ca         1 RLD       0.224000
      4 C02        139.5330   119.8050   142.0330 cp         1 RLD       0.363500
      5 C03        139.9550   121.1740   142.0410 ca         1 RLD       0.315900
      6 C04        139.8640   121.2680   139.7350 ca         1 RLD       0.228000
      7 C05        140.0020   121.9640   138.5220 ca         1 RLD      -0.078000
      8 C06        139.7490   121.3350   137.2930 ca         1 RLD      -0.066000
      9 C07        139.3670   119.9790   137.2470 ca         1 RLD      -0.123600
     10 C08        139.2010   119.2810   138.4650 ca         1 RLD      -0.051000
     11 C09        139.0740   119.3300   135.9110 c          1 RLD       0.610700
     12 C12        140.4270   117.2340   136.4100 c6         1 RLD       0.098000
     13 C13        138.7140   117.1880   134.6110 c6         1 RLD       0.098000
     14 C14        139.7920   116.8750   133.5470 c6         1 RLD      -0.096900
     15 C15        139.0110   117.4440   145.6730 ca         1 RLD      -0.153600
     16 C16        139.1180   116.8100   144.4190 ca         1 RLD      -0.050000
     17 C17        139.2840   117.5700   143.2500 ca         1 RLD      -0.098000
     18 C18        139.3520   118.9890   143.2910 cp         1 RLD      -0.114500
     19 C19        139.2370   119.6020   144.5690 ca         1 RLD      -0.108000
     20 C20        139.0690   118.8450   145.7430 ca         1 RLD       0.012200
     21 C21        138.9550   119.5240   147.0280 cc         1 RLD      -0.264200
     22 C22        138.7910   118.7630   148.1680 cd         1 RLD      -0.034400
     23 C24        138.8320   116.6420   146.9320 c          1 RLD       0.563600
     24 N01        139.2880   119.1790   140.8490 nb         1 RLD      -0.627000
     25 N02        140.1200   121.9070   140.9070 nb         1 RLD      -0.623000
     26 N03        139.2770   117.9370   135.7680 n          1 RLD      -0.405800
     27 N04        138.7300   117.3680   148.1400 n          1 RLD      -0.294000
     28 O01        138.5840   119.9880   135.0010 o          1 RLD      -0.601100
     29 O02        138.7770   115.4170   146.9090 o          1 RLD      -0.554000
     30 H1         140.6530   115.1180   134.5060 hc         1 RLD       0.043700
     31 H2         141.7700   115.9580   133.4310 hc         1 RLD       0.043700
     32 H3         142.3370   116.3270   135.8750 hc         1 RLD       0.051200
     33 H4         142.0000   117.8370   135.0340 hc         1 RLD       0.051200
     34 H5         140.1770   121.6910   142.9720 h4         1 RLD       0.033100
     35 H6         140.3070   123.0070   138.5370 ha         1 RLD       0.138000
     36 H7         139.8610   121.9020   136.3700 ha         1 RLD       0.134000
     37 H8         138.8590   118.2500   138.4600 ha         1 RLD       0.139000
     38 H9         140.0640   116.3040   136.8710 h1         1 RLD       0.057700
     39 H10        140.8720   117.8420   137.2080 h1         1 RLD       0.057700
     40 H11        137.8910   117.7510   134.1480 h1         1 RLD       0.057700
     41 H12        138.2850   116.2450   134.9780 h1         1 RLD       0.057700
     42 H13        140.1460   117.8120   133.0960 hc         1 RLD       0.051200
     43 H14        139.3540   116.2790   132.7350 hc         1 RLD       0.051200
     44 H15        139.0740   115.7250   144.3450 ha         1 RLD       0.140000
     45 H16        139.3680   117.0440   142.3010 ha         1 RLD       0.136000
     46 H17        139.2630   120.6840   144.6590 ha         1 RLD       0.118000
     47 H18        138.9960   120.6080   147.1050 ha         1 RLD       0.200000
     48 H19        138.6990   119.1910   149.1630 h4         1 RLD       0.199000
     49 H20        138.4900   117.2850   150.2600 h1         1 RLD       0.053700
     50 H21        137.6310   116.0160   149.3480 h1         1 RLD       0.053700
     51 H22        139.4060   115.9310   149.5460 h1         1 RLD       0.053700
     52 C23        138.5540   116.6070   149.3990 c3         1 RLD       0.084300
@<TRIPOS>BOND
     1     1     2 1   
     2     1    14 1   
     3     1    30 1   
     4     1    31 1   
     5     2    12 1   
     6     2    32 1   
     7     2    33 1   
     8     3     6 ar  
     9     3    10 ar  
    10     3    24 ar  
    11     4     5 ar  
    12     4    18 1   
    13     4    24 ar  
    14     5    25 ar  
    15     5    34 1   
    16     6     7 ar  
    17     6    25 ar  
    18     7     8 ar  
    19     7    35 1   
    20     8     9 ar  
    21     8    36 1   
    22     9    10 ar  
    23     9    11 1   
    24    10    37 1   
    25    11    26 1   
    26    11    28 2   
    27    12    26 1   
    28    12    38 1   
    29    12    39 1   
    30    13    14 1   
    31    13    26 1   
    32    13    40 1   
    33    13    41 1   
    34    14    42 1   
    35    14    43 1   
    36    15    16 ar  
    37    15    20 ar  
    38    15    23 1   
    39    16    17 ar  
    40    16    44 1   
    41    17    18 ar  
    42    17    45 1   
    43    18    19 ar  
    44    19    20 ar  
    45    19    46 1   
    46    20    21 1   
    47    21    22 2   
    48    21    47 1   
    49    22    27 1   
    50    22    48 1   
    51    23    27 1   
    52    23    29 2   
    53    27    52 1   
    54    49    52 1   
    55    50    52 1   
    56    51    52 1   
@<TRIPOS>SUBSTRUCTURE
     1 RLD         1 TEMP              0 ****  ****    0 ROOT
