@<TRIPOS>MOLECULE
RLD
   52    56     1     0     0
SMALL
abcg2


@<TRIPOS>ATOM
      1 C10        141.0560   116.4080   133.9820 c6         1 RLD      -0.074400
      2 C11        141.5530   117.1020   135.2500 c6         1 RLD      -0.096900
      3 C01        139.4170   119.6690   139.7890 ca         1 RLD       0.224000
      4 C02        139.5630   119.6210   142.0760 cp         1 RLD       0.363500
      5 C03        140.1490   120.9240   142.0420 ca         1 RLD       0.315900
      6 C04        139.9930   120.9690   139.7680 ca         1 RLD       0.228000
      7 C05        140.1900   121.6210   138.5320 ca         1 RLD      -0.078000
      8 C06        139.8200   121.0040   137.3660 ca         1 RLD      -0.066000
      9 C07        139.2620   119.7030   137.3800 ca         1 RLD      -0.123600
     10 C08        139.0600   119.0490   138.5720 ca         1 RLD      -0.051000
     11 C09        138.7820   119.1180   136.0810 c          1 RLD       0.610700
     12 C12        140.4340   117.2550   136.2800 c6         1 RLD       0.098000
     13 C13        138.7500   117.2750   134.4860 c6         1 RLD       0.098000
     14 C14        139.8320   117.1310   133.4190 c6         1 RLD      -0.096900
     15 C15        139.0180   117.5110   145.7630 ca         1 RLD      -0.153600
     16 C16        139.1930   116.8160   144.5560 ca         1 RLD      -0.050000
     17 C17        139.3590   117.4980   143.3740 ca         1 RLD      -0.098000
     18 C18        139.3650   118.9090   143.3570 cp         1 RLD      -0.114500
     19 C19        139.1890   119.6020   144.5430 ca         1 RLD      -0.108000
     20 C20        139.0100   118.9220   145.7610 ca         1 RLD       0.012200
     21 C21        138.8200   119.6110   146.9990 cc         1 RLD      -0.264200
     22 C22        138.6640   118.9000   148.1350 cd         1 RLD      -0.034400
     23 C24        138.8500   116.7620   147.0090 c          1 RLD       0.563600
     24 N01        139.2130   119.0160   140.9600 nb         1 RLD      -0.627000
     25 N02        140.3590   121.5780   140.9300 nb         1 RLD      -0.623000
     26 N03        139.2760   117.9290   135.6860 n          1 RLD      -0.405800
     27 N04        138.6780   117.5250   148.1520 n          1 RLD      -0.294000
     28 O01        137.9290   119.7480   135.4440 o          1 RLD      -0.601100
     29 O02        138.8560   115.5290   147.0800 o          1 RLD      -0.554000
     30 H1         140.7850   115.3740   134.2210 hc         1 RLD       0.043700
     31 H2         141.8520   116.3670   133.2360 hc         1 RLD       0.043700
     32 H3         142.3700   116.5390   135.7060 hc         1 RLD       0.051200
     33 H4         141.9380   118.0960   135.0010 hc         1 RLD       0.051200
     34 H5         140.4610   121.4010   142.9630 h4         1 RLD       0.033100
     35 H6         140.6320   122.6090   138.5320 ha         1 RLD       0.138000
     36 H7         139.9570   121.5050   136.4160 ha         1 RLD       0.134000
     37 H8         138.6300   118.0560   138.6060 ha         1 RLD       0.139000
     38 H9         140.1120   116.2710   136.6360 h1         1 RLD       0.057700
     39 H10        140.7830   117.8220   137.1360 h1         1 RLD       0.057700
     40 H11        137.9080   117.8570   134.1250 h1         1 RLD       0.057700
     41 H12        138.3870   116.2850   134.7820 h1         1 RLD       0.057700
     42 H13        140.1180   118.1260   133.0650 hc         1 RLD       0.051200
     43 H14        139.4190   116.5870   132.5670 hc         1 RLD       0.051200
     44 H15        139.2000   115.7360   144.5730 ha         1 RLD       0.140000
     45 H16        139.4980   116.9620   142.4460 ha         1 RLD       0.136000
     46 H17        139.1660   120.6840   144.5550 ha         1 RLD       0.118000
     47 H18        138.8040   120.6910   147.0300 ha         1 RLD       0.200000
     48 H19        138.5200   119.3690   149.0970 h4         1 RLD       0.199000
     49 H20        138.3780   117.5380   150.2110 h1         1 RLD       0.053700
     50 H21        137.6500   116.1520   149.3660 h1         1 RLD       0.053700
     51 H22        139.4000   116.2060   149.6210 h1         1 RLD       0.053700
     52 C23        138.5160   116.8100   149.4170 c3         1 RLD       0.084300
@<TRIPOS>BOND
     1     1     2 1   
     2     1    14 1   
     3     1    30 1   
     4     1    31 1   
     5     2    12 1   
     6     2    32 1   
     7     2    33 1   
     8     3     6 ar  
     9     3    10 ar  
    10     3    24 ar  
    11     4     5 ar  
    12     4    18 1   
    13     4    24 ar  
    14     5    25 ar  
    15     5    34 1   
    16     6     7 ar  
    17     6    25 ar  
    18     7     8 ar  
    19     7    35 1   
    20     8     9 ar  
    21     8    36 1   
    22     9    10 ar  
    23     9    11 1   
    24    10    37 1   
    25    11    26 1   
    26    11    28 2   
    27    12    26 1   
    28    12    38 1   
    29    12    39 1   
    30    13    14 1   
    31    13    26 1   
    32    13    40 1   
    33    13    41 1   
    34    14    42 1   
    35    14    43 1   
    36    15    16 ar  
    37    15    20 ar  
    38    15    23 1   
    39    16    17 ar  
    40    16    44 1   
    41    17    18 ar  
    42    17    45 1   
    43    18    19 ar  
    44    19    20 ar  
    45    19    46 1   
    46    20    21 1   
    47    21    22 2   
    48    21    47 1   
    49    22    27 1   
    50    22    48 1   
    51    23    27 1   
    52    23    29 2   
    53    27    52 1   
    54    49    52 1   
    55    50    52 1   
    56    51    52 1   
@<TRIPOS>SUBSTRUCTURE
     1 RLD         1 TEMP              0 ****  ****    0 ROOT
