@<TRIPOS>MOLECULE
RLG
   26    27     1     0     0
SMALL
No Charge or Current Charge


@<TRIPOS>ATOM
      1 C13          3.6140     1.3280    -0.4540 c3         1 RLG       0.094300
      2 C10         -2.2340     0.3370     1.2020 ca         1 RLG      -0.103000
      3 C11          1.0210     1.1400    -0.3110 c5         1 RLG       0.101000
      4 C02          2.4280    -0.7170     0.3380 c          1 RLG       0.562000
      5 C03          0.9710    -1.1590     0.4230 c5         1 RLG      -0.164400
      6 C04          0.2430     0.1940     0.6650 c5         1 RLG      -0.031400
      7 C05         -1.2300     0.0850     0.2440 ca         1 RLG      -0.078300
      8 C06         -1.6260    -0.2600    -1.0700 ca         1 RLG      -0.103000
      9 C07         -2.9870    -0.3480    -1.4100 ca         1 RLG      -0.108500
     10 C08         -3.9730    -0.0930    -0.4450 ca         1 RLG      -0.106000
     11 C09         -3.5950     0.2490     0.8630 ca         1 RLG      -0.108500
     12 N12          2.3770     0.5560    -0.2380 n          1 RLG      -0.419800
     13 O01          3.4210    -1.2160     0.8490 o          1 RLG      -0.552000
     14 H1           4.0450     1.6150     0.5130 h1         1 RLG       0.042367
     15 H2           4.3400     0.7210    -1.0090 h1         1 RLG       0.042367
     16 H3           3.3910     2.2350    -1.0310 h1         1 RLG       0.042367
     17 H5           0.6480     1.1010    -1.3420 h1         1 RLG       0.048700
     18 H6           0.9980     2.1850     0.0280 h1         1 RLG       0.048700
     19 H7           0.6980    -1.5620    -0.5580 hc         1 RLG       0.079200
     20 H8           0.8200    -1.9220     1.1930 hc         1 RLG       0.079200
     21 H9           0.3690     0.5230     1.7040 hc         1 RLG       0.064700
     22 H10         -0.8840    -0.4640    -1.8380 ha         1 RLG       0.112000
     23 H11         -3.2770    -0.6140    -2.4250 ha         1 RLG       0.114500
     24 H12         -5.0260    -0.1610    -0.7080 ha         1 RLG       0.114000
     25 H13         -4.3560     0.4470     1.6140 ha         1 RLG       0.114500
     26 H4          -1.9590     0.6030     2.2210 ha         1 RLG       0.112000
@<TRIPOS>BOND
     1     1    12 1   
     2     1    14 1   
     3     1    15 1   
     4     1    16 1   
     5     2     7 ar  
     6     2    11 ar  
     7     2    26 1   
     8     3     6 1   
     9     3    12 1   
    10     3    17 1   
    11     3    18 1   
    12     4     5 1   
    13     4    12 1   
    14     4    13 2   
    15     5     6 1   
    16     5    19 1   
    17     5    20 1   
    18     6     7 1   
    19     6    21 1   
    20     7     8 ar  
    21     8     9 ar  
    22     8    22 1   
    23     9    10 ar  
    24     9    23 1   
    25    10    11 ar  
    26    10    24 1   
    27    11    25 1   
@<TRIPOS>SUBSTRUCTURE
     1 RLG         1 TEMP              0 ****  ****    0 ROOT
