@<TRIPOS>MOLECULE
RLG
   26    27     1     0     0
SMALL
bcc


@<TRIPOS>ATOM
      1 C13          3.5170     1.3930    -0.4530 c3         1 RLG       0.094300
      2 C10         -2.2280     0.3580     1.1740 ca         1 RLG      -0.121000
      3 C11          1.0460     1.1420    -0.0900 c5         1 RLG       0.101000
      4 C02          2.4280    -0.7270     0.1850 c          1 RLG       0.704500
      5 C03          1.0080    -1.2010     0.4100 c5         1 RLG      -0.164400
      6 C04          0.2160     0.0850     0.6560 c5         1 RLG      -0.031400
      7 C05         -1.2320     0.0450     0.2550 ca         1 RLG      -0.078300
      8 C06         -1.6110    -0.3030    -1.0420 ca         1 RLG      -0.121000
      9 C07         -2.9490    -0.3380    -1.4060 ca         1 RLG      -0.126500
     10 C08         -3.9350    -0.0250    -0.4780 ca         1 RLG      -0.124000
     11 C09         -3.5700     0.3250     0.8140 ca         1 RLG      -0.126500
     12 N12          2.3850     0.5960    -0.0620 n          1 RLG      -0.486800
     13 O01          3.4330    -1.4200     0.1980 o          1 RLG      -0.627500
     14 H1           3.6120     2.2650     0.1950 h1         1 RLG       0.042367
     15 H2           4.4250     0.8010    -0.3770 h1         1 RLG       0.042367
     16 H3           3.4130     1.7410    -1.4830 h1         1 RLG       0.042367
     17 H5           0.7060     1.2840    -1.1220 h1         1 RLG       0.048700
     18 H6           1.0110     2.1140     0.4060 h1         1 RLG       0.048700
     19 H7           0.6770    -1.7200    -0.4940 hc         1 RLG       0.079200
     20 H8           0.9480    -1.9110     1.2340 hc         1 RLG       0.079200
     21 H9           0.2750     0.3150     1.7230 hc         1 RLG       0.064700
     22 H10         -0.8550    -0.5510    -1.7790 ha         1 RLG       0.130000
     23 H11         -3.2230    -0.6140    -2.4170 ha         1 RLG       0.132500
     24 H12         -4.9790    -0.0550    -0.7610 ha         1 RLG       0.132000
     25 H13         -4.3290     0.5710     1.5460 ha         1 RLG       0.132500
     26 H4          -1.9530     0.6320     2.1860 ha         1 RLG       0.130000
@<TRIPOS>BOND
     1     1    12 1   
     2     1    14 1   
     3     1    15 1   
     4     1    16 1   
     5     2     7 ar  
     6     2    11 ar  
     7     2    26 1   
     8     3     6 1   
     9     3    12 1   
    10     3    17 1   
    11     3    18 1   
    12     4     5 1   
    13     4    12 1   
    14     4    13 2   
    15     5     6 1   
    16     5    19 1   
    17     5    20 1   
    18     6     7 1   
    19     6    21 1   
    20     7     8 ar  
    21     8     9 ar  
    22     8    22 1   
    23     9    10 ar  
    24     9    23 1   
    25    10    11 ar  
    26    10    24 1   
    27    11    25 1   
@<TRIPOS>SUBSTRUCTURE
     1 RLG         1 TEMP              0 ****  ****    0 ROOT
