@<TRIPOS>MOLECULE
RLH
   53    56     1     0     0
SMALL
abcg2


@<TRIPOS>ATOM
      1 N1         -16.5530     4.4510    26.2240 nb         1 RLH      -0.646000
      2 C4         -22.7040     4.2140    29.0580 ca         1 RLH      -0.069300
      3 C5         -22.3200     4.9290    27.7890 c3         1 RLH      -0.108100
      4 C6         -20.8540     5.3450    27.7980 c          1 RLH       0.597100
      5 C7         -18.7820     5.3070    26.4900 ca         1 RLH      -0.064000
      6 C8         -17.8810     4.2720    26.4190 ca         1 RLH       0.297900
      7 C10        -16.9300     6.8320    26.1660 ca         1 RLH      -0.048000
      8 C13        -15.4540    10.8000    25.8180 c3         1 RLH       0.160600
      9 C15        -16.6960    12.9730    27.6880 c5         1 RLH       0.157300
     10 C17        -15.3810    14.8900    28.4270 c5         1 RLH      -0.079400
     11 C20        -19.1690     7.7790    26.3480 ca         1 RLH      -0.054000
     12 C21        -18.3270     6.6400    26.3460 ca         1 RLH      -0.034000
     13 C22        -22.4610     2.8450    29.1790 ca         1 RLH      -0.097000
     14 O          -20.3540     5.9490    28.7380 o          1 RLH      -0.567100
     15 C3         -23.2730     4.9000    30.1290 ca         1 RLH      -0.084000
     16 C2         -23.5960     4.2310    31.3050 ca         1 RLH      -0.099000
     17 C1         -23.3540     2.8680    31.4320 ca         1 RLH      -0.096000
     18 C          -22.7870     2.1950    30.3590 ca         1 RLH       0.126000
     19 CL         -22.4770     0.4740    30.4970 cl         1 RLH      -0.213000
     20 N          -20.1610     5.0200    26.6760 ns         1 RLH      -0.171000
     21 C9         -16.1050     5.6830    26.1150 ca         1 RLH       0.345900
     22 C19        -18.6390     9.0290    26.2030 ca         1 RLH      -0.116000
     23 C12        -17.2410     9.2200    26.0490 ca         1 RLH       0.152100
     24 C11        -16.3960     8.1350    26.0260 ca         1 RLH      -0.192000
     25 O1         -16.8560    10.5110    25.9290 os         1 RLH      -0.356100
     26 C14        -15.2570    12.3000    25.7940 c3         1 RLH       0.169800
     27 N2         -15.3540    12.9370    27.0960 n3         1 RLH      -0.722600
     28 C18        -14.9390    14.3420    27.0660 c5         1 RLH       0.157300
     29 C16        -16.5620    13.9740    28.8410 c5         1 RLH      -0.079400
     30 H1         -22.9010     5.8490    27.6890 hc         1 RLH       0.066700
     31 H2         -22.5350     4.3060    26.9210 hc         1 RLH       0.066700
     32 H3         -18.2270     3.2500    26.5220 h4         1 RLH       0.021100
     33 H4         -14.9210    10.3590    26.6650 h1         1 RLH       0.047700
     34 H5         -15.0740    10.3590    24.8920 h1         1 RLH       0.047700
     35 H6         -17.4330    13.3310    26.9480 h1         1 RLH       0.039200
     36 H7         -17.0090    11.9820    28.0110 h1         1 RLH       0.039200
     37 H8         -14.5690    14.8190    29.1510 hc         1 RLH       0.047200
     38 H9         -15.6700    15.9390    28.3570 hc         1 RLH       0.047200
     39 H10        -20.2360     7.6570    26.4630 ha         1 RLH       0.124000
     40 H11        -22.0220     2.2940    28.3570 ha         1 RLH       0.124000
     41 H12        -23.4680     5.9610    30.0400 ha         1 RLH       0.122000
     42 H13        -24.0410     4.7710    32.1310 ha         1 RLH       0.121000
     43 H14        -23.6040     2.3390    32.3410 ha         1 RLH       0.131000
     44 H15        -20.6040     4.4130    26.0030 hn         1 RLH       0.155000
     45 H16        -15.0360     5.8110    25.9720 h4         1 RLH       0.021100
     46 H17        -19.2750     9.9050    26.2010 ha         1 RLH       0.129000
     47 H18        -15.3290     8.2450    25.8970 ha         1 RLH       0.123000
     48 H19        -14.2500    12.4810    25.4100 h1         1 RLH       0.043200
     49 H20        -15.9630    12.7430    25.0700 h1         1 RLH       0.043200
     50 H22        -13.8640    14.4210    26.8910 h1         1 RLH       0.039200
     51 H23        -15.4530    14.8820    26.2520 h1         1 RLH       0.039200
     52 H24        -17.4880    14.5300    28.9910 hc         1 RLH       0.047200
     53 H25        -16.3360    13.4560    29.7730 hc         1 RLH       0.047200
@<TRIPOS>BOND
     1     1     6 ar  
     2     1    21 ar  
     3     2     3 1   
     4     2    13 ar  
     5     2    15 ar  
     6     3     4 1   
     7     3    30 1   
     8     3    31 1   
     9     4    14 2   
    10     4    20 1   
    11     5     6 ar  
    12     5    12 ar  
    13     5    20 1   
    14     6    32 1   
    15     7    12 ar  
    16     7    21 ar  
    17     7    24 ar  
    18     8    25 1   
    19     8    26 1   
    20     8    33 1   
    21     8    34 1   
    22     9    27 1   
    23     9    29 1   
    24     9    35 1   
    25     9    36 1   
    26    10    28 1   
    27    10    29 1   
    28    10    37 1   
    29    10    38 1   
    30    11    12 ar  
    31    11    22 ar  
    32    11    39 1   
    33    13    18 ar  
    34    13    40 1   
    35    15    16 ar  
    36    15    41 1   
    37    16    17 ar  
    38    16    42 1   
    39    17    18 ar  
    40    17    43 1   
    41    18    19 1   
    42    20    44 1   
    43    21    45 1   
    44    22    23 ar  
    45    22    46 1   
    46    23    24 ar  
    47    23    25 1   
    48    24    47 1   
    49    26    27 1   
    50    26    48 1   
    51    26    49 1   
    52    27    28 1   
    53    28    50 1   
    54    28    51 1   
    55    29    52 1   
    56    29    53 1   
@<TRIPOS>SUBSTRUCTURE
     1 RLH         1 TEMP              0 ****  ****    0 ROOT
