@<TRIPOS>MOLECULE
RLH
   53    56     1     0     0
SMALL
No Charge or Current Charge


@<TRIPOS>ATOM
      1 N1         -16.6830     4.4520    26.8270 nb         1 RLH      -0.646000
      2 C4         -22.8740     4.0830    29.0080 ca         1 RLH      -0.069300
      3 C5         -22.6200     5.1570    27.9550 c3         1 RLH      -0.108100
      4 C6         -21.1840     5.6860    28.0560 c          1 RLH       0.597100
      5 C7         -18.9190     5.4170    26.9360 ca         1 RLH      -0.064000
      6 C8         -18.0220     4.3280    26.9710 ca         1 RLH       0.297900
      7 C10        -16.9970     6.8480    26.5530 ca         1 RLH      -0.048000
      8 C13        -15.3140    10.7680    25.8680 c3         1 RLH       0.160600
      9 C15        -16.4980    13.1870    27.5240 c5         1 RLH       0.157300
     10 C17        -15.1190    15.1540    28.0470 c5         1 RLH      -0.079400
     11 C20        -19.2110     7.8630    26.5750 ca         1 RLH      -0.054000
     12 C21        -18.3970     6.7150    26.6990 ca         1 RLH      -0.034000
     13 C22        -22.6410     2.7250    28.7100 ca         1 RLH      -0.097000
     14 O          -20.8470     6.4950    28.9120 o          1 RLH      -0.567100
     15 C3         -23.3350     4.4400    30.2910 ca         1 RLH      -0.084000
     16 C2         -23.5630     3.4510    31.2650 ca         1 RLH      -0.099000
     17 C1         -23.3290     2.0990    30.9610 ca         1 RLH      -0.096000
     18 C          -22.8690     1.7380    29.6840 ca         1 RLH       0.126000
     19 Cl         -22.5740     0.0470    29.3040 cl         1 RLH      -0.213000
     20 N          -20.3010     5.1510    27.1310 ns         1 RLH      -0.171000
     21 C9         -16.1880     5.6950    26.6300 ca         1 RLH       0.345900
     22 C19        -18.6290     9.1210    26.3410 ca         1 RLH      -0.116000
     23 C12        -17.2380     9.2550    26.2190 ca         1 RLH       0.152100
     24 C11        -16.4180     8.1120    26.3210 ca         1 RLH      -0.192000
     25 O1         -16.7300    10.5170    25.9920 os         1 RLH      -0.356100
     26 C14        -15.0790    12.2860    25.6440 c3         1 RLH       0.169800
     27 N2         -15.1780    13.1470    26.8560 n3         1 RLH      -0.722600
     28 C18        -14.8820    14.5750    26.6300 c5         1 RLH       0.157300
     29 C16        -16.2910    14.2860    28.6040 c5         1 RLH      -0.079400
     30 H1         -23.3130     5.9920    28.1080 hc         1 RLH       0.066700
     31 H2         -22.7860     4.7280    26.9590 hc         1 RLH       0.066700
     32 H3         -18.3900     3.3170    27.1390 h4         1 RLH       0.021100
     33 H4         -14.7730    10.4450    26.7670 h1         1 RLH       0.047700
     34 H5         -14.9100    10.2210    25.0070 h1         1 RLH       0.047700
     35 H6         -17.2910    13.4750    26.8180 h1         1 RLH       0.039200
     36 H7         -16.7770    12.2250    27.9750 h1         1 RLH       0.039200
     37 H8         -14.2230    15.0410    28.6670 hc         1 RLH       0.047200
     38 H9         -15.3610    16.2220    28.0180 hc         1 RLH       0.047200
     39 H10        -20.2920     7.7980    26.6450 ha         1 RLH       0.124000
     40 H11        -22.2840     2.4310    27.7270 ha         1 RLH       0.124000
     41 H12        -23.5150     5.4850    30.5360 ha         1 RLH       0.122000
     42 H13        -23.9190     3.7330    32.2530 ha         1 RLH       0.121000
     43 H14        -23.5040     1.3320    31.7120 ha         1 RLH       0.131000
     44 H15        -20.6900     4.4420    26.5210 hn         1 RLH       0.155000
     45 H16        -15.1060     5.7670    26.5180 h4         1 RLH       0.021100
     46 H17        -19.2620    10.0000    26.2510 ha         1 RLH       0.129000
     47 H18        -15.3400     8.1860    26.2170 ha         1 RLH       0.123000
     48 H19        -14.0710    12.3940    25.2210 h1         1 RLH       0.043200
     49 H20        -15.7790    12.6350    24.8730 h1         1 RLH       0.043200
     50 H22        -13.8540    14.7450    26.2810 h1         1 RLH       0.039200
     51 H23        -15.5720    15.0180    25.8960 h1         1 RLH       0.039200
     52 H24        -17.2060    14.8710    28.7570 hc         1 RLH       0.047200
     53 H25        -16.0250    13.8460    29.5710 hc         1 RLH       0.047200
@<TRIPOS>BOND
     1     1     6 ar  
     2     1    21 ar  
     3     2     3 1   
     4     2    13 ar  
     5     2    15 ar  
     6     3     4 1   
     7     3    30 1   
     8     3    31 1   
     9     4    14 2   
    10     4    20 1   
    11     5     6 ar  
    12     5    12 ar  
    13     5    20 1   
    14     6    32 1   
    15     7    12 ar  
    16     7    21 ar  
    17     7    24 ar  
    18     8    25 1   
    19     8    26 1   
    20     8    33 1   
    21     8    34 1   
    22     9    27 1   
    23     9    29 1   
    24     9    35 1   
    25     9    36 1   
    26    10    28 1   
    27    10    29 1   
    28    10    37 1   
    29    10    38 1   
    30    11    12 ar  
    31    11    22 ar  
    32    11    39 1   
    33    13    18 ar  
    34    13    40 1   
    35    15    16 ar  
    36    15    41 1   
    37    16    17 ar  
    38    16    42 1   
    39    17    18 ar  
    40    17    43 1   
    41    18    19 1   
    42    20    44 1   
    43    21    45 1   
    44    22    23 ar  
    45    22    46 1   
    46    23    24 ar  
    47    23    25 1   
    48    24    47 1   
    49    26    27 1   
    50    26    48 1   
    51    26    49 1   
    52    27    28 1   
    53    28    50 1   
    54    28    51 1   
    55    29    52 1   
    56    29    53 1   
@<TRIPOS>SUBSTRUCTURE
     1 RLH         1 TEMP              0 ****  ****    0 ROOT
