@<TRIPOS>MOLECULE
RLI
   41    43     1     0     0
SMALL
No Charge or Current Charge


@<TRIPOS>ATOM
      1 N10         30.8870     9.0620     8.2380 ns         1 RLI      -0.473400
      2 O10         32.7810    10.3150     7.9630 o          1 RLI      -0.574100
      3 S10         32.4200     7.8930     6.2200 ss         1 RLI       0.026600
      4 C11         30.6960    12.3890     9.0790 c3         1 RLI      -0.078100
      5 N11         30.1130     7.1390     7.2170 nc         1 RLI      -0.717000
      6 O11         26.4460    -0.3790     3.0590 o          1 RLI      -0.722500
      7 S11         33.8270     4.8290     2.7600 ss         1 RLI      -0.165400
      8 C12         31.7120    10.1210     8.5220 c          1 RLI       0.598100
      9 N12         31.5780     4.4870     4.0470 nd         1 RLI      -0.721000
     10 O12         27.7990    -2.0200     2.7640 o          1 RLI      -0.722500
     11 C13         31.2060    11.0420     9.6380 c3         1 RLI      -0.148400
     12 N13         31.9860     2.8420     2.4570 nu         1 RLI      -0.916900
     13 C14         31.0480     8.0650     7.3180 cd         1 RLI       0.537300
     14 C15         30.4320     6.2180     6.2470 cc         1 RLI       0.361300
     15 C16         29.4410     5.1050     6.0310 c3         1 RLI      -0.123400
     16 C17         31.6300     6.4530     5.6020 cd         1 RLI      -0.292500
     17 C18         32.1680     5.6260     4.5550 cd         1 RLI       0.429500
     18 C19         33.3770     5.9720     3.9920 cc         1 RLI      -0.294000
     19 C20         32.3380     3.9920     3.0990 cc         1 RLI       0.757300
     20 C21         30.9020     1.9750     2.5770 ca         1 RLI       0.250000
     21 C22         29.5950     2.4450     2.7840 ca         1 RLI      -0.170000
     22 C23         28.5190     1.5460     2.8830 ca         1 RLI      -0.067500
     23 C24         28.7300     0.1530     2.7650 ca         1 RLI      -0.136600
     24 C25         27.5690    -0.8230     2.8710 c          1 RLI       0.705600
     25 C26         30.0480    -0.3100     2.5420 ca         1 RLI      -0.067500
     26 C27         31.1190     0.5960     2.4440 ca         1 RLI      -0.170000
     27 HN10        30.0430     9.0260     8.7880 hn         1 RLI       0.335500
     28 H11         30.3420    13.0330     9.8930 hc         1 RLI       0.044700
     29 H11A        31.4960    12.9190     8.5470 hc         1 RLI       0.044700
     30 H11B        29.8640    12.2310     8.3810 hc         1 RLI       0.044700
     31 H13         32.0340    11.2500    10.3260 hc         1 RLI       0.060700
     32 H13A        30.3840    10.5650    10.1840 hc         1 RLI       0.060700
     33 HN13        32.7810     2.4610     1.9550 hn         1 RLI       0.494000
     34 H16         28.5830     5.1910     6.7080 hc         1 RLI       0.060700
     35 H16A        29.0540     5.1220     5.0060 hc         1 RLI       0.060700
     36 H16B        29.9050     4.1290     6.2120 hc         1 RLI       0.060700
     37 H19         34.0250     6.8080     4.2150 h4         1 RLI       0.155000
     38 H22         29.4030     3.5110     2.8610 ha         1 RLI       0.105500
     39 H23         27.5170     1.9380     3.0460 ha         1 RLI       0.131500
     40 H26         30.2470    -1.3760     2.4420 ha         1 RLI       0.131500
     41 H27         32.1230     0.2160     2.2720 ha         1 RLI       0.105500
@<TRIPOS>BOND
     1     1     8 1   
     2     1    13 1   
     3     1    27 1   
     4     2     8 2   
     5     3    13 1   
     6     3    16 1   
     7     4    11 1   
     8     4    28 1   
     9     4    29 1   
    10     4    30 1   
    11     5    13 2   
    12     5    14 1   
    13     6    24 1   
    14     7    18 1   
    15     7    19 1   
    16     8    11 1   
    17     9    17 1   
    18     9    19 2   
    19    10    24 1   
    20    11    31 1   
    21    11    32 1   
    22    12    19 1   
    23    12    20 1   
    24    12    33 1   
    25    14    15 1   
    26    14    16 2   
    27    15    34 1   
    28    15    35 1   
    29    15    36 1   
    30    16    17 1   
    31    17    18 2   
    32    18    37 1   
    33    20    21 ar  
    34    20    26 ar  
    35    21    22 ar  
    36    21    38 1   
    37    22    23 ar  
    38    22    39 1   
    39    23    24 1   
    40    23    25 ar  
    41    25    26 ar  
    42    25    40 1   
    43    26    41 1   
@<TRIPOS>SUBSTRUCTURE
     1 RLI         1 TEMP              0 ****  ****    0 ROOT
