@<TRIPOS>MOLECULE
RLI
   41    43     1     0     0
SMALL
abcg2


@<TRIPOS>ATOM
      1 N10         30.5200     9.1030     8.1710 ns         1 RLI      -0.473400
      2 O10         31.9430    10.5110     7.1250 o          1 RLI      -0.574100
      3 S10         31.9800     7.9170     6.1690 ss         1 RLI       0.026600
      4 C11         30.9760    12.8010     8.5280 c3         1 RLI      -0.078100
      5 N11         30.1880     6.8440     7.6720 nc         1 RLI      -0.717000
      6 O11         26.4010    -0.1960     3.0410 o          1 RLI      -0.722500
      7 S11         34.0030     4.5790     3.2360 ss         1 RLI      -0.165400
      8 C12         31.1110    10.3270     8.0030 c          1 RLI       0.598100
      9 N12         31.6840     4.3560     4.3570 nd         1 RLI      -0.721000
     10 O12         27.3920    -1.3950     1.4270 o          1 RLI      -0.722500
     11 C13         30.6780    11.3820     8.9940 c3         1 RLI      -0.148400
     12 N13         32.1310     2.7030     2.7060 nu         1 RLI      -0.916900
     13 C14         30.8010     7.9690     7.4390 cd         1 RLI       0.537300
     14 C15         30.6340     5.8390     6.8390 cc         1 RLI       0.361300
     15 C16         30.0320     4.4810     6.9980 c3         1 RLI      -0.123400
     16 C17         31.6100     6.2200     5.9530 cd         1 RLI      -0.292500
     17 C18         32.3080     5.4500     4.9350 cd         1 RLI       0.429500
     18 C19         33.5590     5.7200     4.4590 cc         1 RLI      -0.294000
     19 C20         32.4410     3.7940     3.4590 cc         1 RLI       0.757300
     20 C21         30.9470     1.9600     2.6650 ca         1 RLI       0.250000
     21 C22         29.8270     2.2200     3.4620 ca         1 RLI      -0.170000
     22 C23         28.6930     1.4270     3.3310 ca         1 RLI      -0.067500
     23 C24         28.6280     0.3690     2.4280 ca         1 RLI      -0.136600
     24 C25         27.3710    -0.4780     2.2890 c          1 RLI       0.705600
     25 C26         29.7590     0.1160     1.6450 ca         1 RLI      -0.067500
     26 C27         30.8990     0.8920     1.7570 ca         1 RLI      -0.170000
     27 HN10        29.8250     8.9860     8.8960 hn         1 RLI       0.335500
     28 H11         30.6710    13.5150     9.2930 hc         1 RLI       0.044700
     29 H11A        32.0410    12.9350     8.3390 hc         1 RLI       0.044700
     30 H11B        30.4360    13.0330     7.6090 hc         1 RLI       0.044700
     31 H13         31.2060    11.1680     9.9300 hc         1 RLI       0.060700
     32 H13A        29.6140    11.2530     9.2100 hc         1 RLI       0.060700
     33 HN13        32.8440     2.4010     2.0590 hn         1 RLI       0.494000
     34 H16         29.9180     4.2520     8.0590 hc         1 RLI       0.060700
     35 H16A        29.0370     4.4440     6.5450 hc         1 RLI       0.060700
     36 H16B        30.6420     3.7180     6.5240 hc         1 RLI       0.060700
     37 H19         34.2450     6.4930     4.7640 h4         1 RLI       0.155000
     38 H22         29.8490     3.0340     4.1670 ha         1 RLI       0.105500
     39 H23         27.8280     1.6360     3.9470 ha         1 RLI       0.131500
     40 H26         29.7320    -0.7030     0.9390 ha         1 RLI       0.131500
     41 H27         31.7640     0.6810     1.1390 ha         1 RLI       0.105500
@<TRIPOS>BOND
     1     1     8 1   
     2     1    13 1   
     3     1    27 1   
     4     2     8 2   
     5     3    13 1   
     6     3    16 1   
     7     4    11 1   
     8     4    28 1   
     9     4    29 1   
    10     4    30 1   
    11     5    13 2   
    12     5    14 1   
    13     6    24 1   
    14     7    18 1   
    15     7    19 1   
    16     8    11 1   
    17     9    17 1   
    18     9    19 2   
    19    10    24 1   
    20    11    31 1   
    21    11    32 1   
    22    12    19 1   
    23    12    20 1   
    24    12    33 1   
    25    14    15 1   
    26    14    16 2   
    27    15    34 1   
    28    15    35 1   
    29    15    36 1   
    30    16    17 1   
    31    17    18 2   
    32    18    37 1   
    33    20    21 ar  
    34    20    26 ar  
    35    21    22 ar  
    36    21    38 1   
    37    22    23 ar  
    38    22    39 1   
    39    23    24 1   
    40    23    25 ar  
    41    25    26 ar  
    42    25    40 1   
    43    26    41 1   
@<TRIPOS>SUBSTRUCTURE
     1 RLI         1 TEMP              0 ****  ****    0 ROOT
