@<TRIPOS>MOLECULE
RLJ
   42    43     1     0     0
SMALL
No Charge or Current Charge


@<TRIPOS>ATOM
      1 C1          -2.8070    -0.8140    -1.6670 ca         1 RLJ      -0.119000
      2 F1          -4.8830     1.2390     2.4570 f          1 RLJ      -0.105333
      3 C2          -4.1230    -1.2990    -1.6270 ca         1 RLJ      -0.050000
      4 F2          -5.9140    -0.6590     2.3080 f          1 RLJ      -0.105333
      5 C3          -5.0000    -0.9240    -0.5910 ca         1 RLJ       0.004000
      6 F3          -6.5790     1.0440     1.1260 f          1 RLJ      -0.105333
      7 C4          -4.5520    -0.0400     0.4290 ca         1 RLJ      -0.132300
      8 C5          -2.3430     0.0600    -0.6640 ca         1 RLJ      -0.001000
      9 C6          -3.2200     0.4380     0.3700 ca         1 RLJ      -0.128000
     10 C7          -5.4820     0.3980     1.5830 c3         1 RLJ       0.359300
     11 C8          -6.3380    -1.4610    -0.6140 cg         1 RLJ       0.311000
     12 N8          -7.4190    -1.9020    -0.6420 n1         1 RLJ      -0.418000
     13 N9          -1.0260     0.5960    -0.6350 ns         1 RLJ      -0.140000
     14 C10          0.0890     0.4050    -1.4430 c          1 RLJ       0.573100
     15 O10          0.1090    -0.3580    -2.4040 o          1 RLJ      -0.568100
     16 C11          1.3510     1.2310    -1.0160 c3         1 RLJ       0.112000
     17 O11          1.1220     2.0000     0.1940 oh         1 RLJ      -0.647000
     18 C12          1.7110     2.2440    -2.1330 c3         1 RLJ      -0.083100
     19 C13          2.5220     0.2440    -0.7470 c3         1 RLJ       0.136600
     20 O14          3.6260     0.9830    -0.1810 os         1 RLJ      -0.336100
     21 C16          4.8190     0.3800     0.1580 ca         1 RLJ       0.163100
     22 C17          5.8320     1.1900     0.6920 ca         1 RLJ      -0.179000
     23 C18          7.0720     0.6350     1.0570 ca         1 RLJ      -0.031500
     24 C19          7.3020    -0.7440     0.8880 ca         1 RLJ      -0.058000
     25 C20          6.2880    -1.5610     0.3520 ca         1 RLJ      -0.031500
     26 C21          5.0490    -1.0030    -0.0120 ca         1 RLJ      -0.179000
     27 C22          8.5670    -1.3150     1.2600 cg         1 RLJ       0.327000
     28 N22          9.5910    -1.7850     1.5680 n1         1 RLJ      -0.453000
     29 H1          -2.1700    -1.1280    -2.4870 ha         1 RLJ       0.159000
     30 H2          -4.4630    -1.9740    -2.4110 ha         1 RLJ       0.136000
     31 H6          -2.8490     1.1150     1.1370 ha         1 RLJ       0.136000
     32 HN9         -0.8610     1.2510     0.1200 hn         1 RLJ       0.177000
     33 HO11         2.0120     2.2060     0.5600 ho         1 RLJ       0.456000
     34 H12          0.8720     2.9260    -2.3210 hc         1 RLJ       0.061700
     35 H12A         2.5830     2.8490    -1.8570 hc         1 RLJ       0.061700
     36 H12B         1.9420     1.7260    -3.0710 hc         1 RLJ       0.061700
     37 H13          2.1870    -0.5370    -0.0520 h1         1 RLJ       0.059200
     38 H13A         2.8190    -0.2380    -1.6880 h1         1 RLJ       0.059200
     39 H17          5.6570     2.2540     0.8230 ha         1 RLJ       0.130500
     40 H18          7.8490     1.2760     1.4700 ha         1 RLJ       0.128500
     41 H20          6.4570    -2.6280     0.2180 ha         1 RLJ       0.128500
     42 H21          4.2850    -1.6570    -0.4230 ha         1 RLJ       0.130500
@<TRIPOS>BOND
     1     1     3 ar  
     2     1     8 ar  
     3     1    29 1   
     4     2    10 1   
     5     3     5 ar  
     6     3    30 1   
     7     4    10 1   
     8     5     7 ar  
     9     5    11 1   
    10     6    10 1   
    11     7     9 ar  
    12     7    10 1   
    13     8     9 ar  
    14     8    13 1   
    15     9    31 1   
    16    11    12 3   
    17    13    14 1   
    18    13    32 1   
    19    14    15 2   
    20    14    16 1   
    21    16    17 1   
    22    16    18 1   
    23    16    19 1   
    24    17    33 1   
    25    18    34 1   
    26    18    35 1   
    27    18    36 1   
    28    19    20 1   
    29    19    37 1   
    30    19    38 1   
    31    20    21 1   
    32    21    22 ar  
    33    21    26 ar  
    34    22    23 ar  
    35    22    39 1   
    36    23    24 ar  
    37    23    40 1   
    38    24    25 ar  
    39    24    27 1   
    40    25    26 ar  
    41    25    41 1   
    42    26    42 1   
    43    27    28 3   
@<TRIPOS>SUBSTRUCTURE
     1 RLJ         1 TEMP              0 ****  ****    0 ROOT
