@<TRIPOS>MOLECULE
RLJ
   42    43     1     0     0
SMALL
bcc


@<TRIPOS>ATOM
      1 C1          -2.6050    -0.9770    -1.4170 ca         1 RLJ      -0.137000
      2 F1          -5.1950     1.6950     1.8630 f          1 RLJ      -0.226633
      3 C2          -3.9120    -1.4200    -1.5040 ca         1 RLJ      -0.068000
      4 F2          -6.2210    -0.1950     1.8400 f          1 RLJ      -0.226633
      5 C3          -4.9140    -0.8750    -0.7100 ca         1 RLJ       0.004000
      6 F3          -6.6370     1.2730     0.3240 f          1 RLJ      -0.226633
      7 C4          -4.5870     0.1440     0.1950 ca         1 RLJ      -0.132300
      8 C5          -2.2800     0.0380    -0.5180 ca         1 RLJ       0.091600
      9 C6          -3.2880     0.5880     0.2850 ca         1 RLJ      -0.146000
     10 C7          -5.6580     0.7380     1.0630 c3         1 RLJ       0.723200
     11 C8          -6.2430    -1.3720    -0.8440 cg         1 RLJ       0.221800
     12 N8          -7.3060    -1.7930    -0.9770 n1         1 RLJ      -0.328800
     13 N9          -1.0080     0.5600    -0.3480 ns         1 RLJ      -0.466100
     14 C10          0.1410     0.2320    -0.9910 c          1 RLJ       0.640100
     15 O10          0.2360    -0.6260    -1.8450 o          1 RLJ      -0.568100
     16 C11          1.3490     1.0950    -0.5810 c3         1 RLJ       0.088800
     17 O11          1.1190     1.7720     0.6310 oh         1 RLJ      -0.584800
     18 C12          1.5260     2.1590    -1.6630 c3         1 RLJ      -0.083100
     19 C13          2.5600     0.1670    -0.4800 c3         1 RLJ       0.113400
     20 O14          3.6750     0.9670    -0.1430 os         1 RLJ      -0.312900
     21 C16          4.8630     0.3840     0.0510 ca         1 RLJ       0.163100
     22 C17          5.9150     1.2390     0.3960 ca         1 RLJ      -0.197000
     23 C18          7.1760     0.7330     0.6190 ca         1 RLJ      -0.049500
     24 C19          7.4100    -0.6410     0.5000 ca         1 RLJ      -0.058000
     25 C20          6.3630    -1.4920     0.1560 ca         1 RLJ      -0.049500
     26 C21          5.0950    -0.9880    -0.0700 ca         1 RLJ      -0.197000
     27 C22          8.7120    -1.1680     0.7320 cg         1 RLJ       0.237800
     28 N22          9.7670    -1.5950     0.9210 n1         1 RLJ      -0.363800
     29 H1          -1.8600    -1.4260    -2.0510 ha         1 RLJ       0.177000
     30 H2          -4.1550    -2.2080    -2.2040 ha         1 RLJ       0.154000
     31 H6          -3.0280     1.3730     0.9840 ha         1 RLJ       0.154000
     32 HN9         -0.9180     1.2980     0.3390 hn         1 RLJ       0.343500
     33 HO11         1.2270     1.1650     1.3740 ho         1 RLJ       0.417000
     34 H12          0.6400     2.7930    -1.7230 hc         1 RLJ       0.061700
     35 H12A         2.3820     2.7960    -1.4440 hc         1 RLJ       0.061700
     36 H12B         1.6820     1.6990    -2.6370 hc         1 RLJ       0.061700
     37 H13          2.3840    -0.5920     0.2940 h1         1 RLJ       0.059200
     38 H13A         2.7220    -0.3480    -1.4290 h1         1 RLJ       0.059200
     39 H17          5.7310     2.3020     0.4870 ha         1 RLJ       0.148500
     40 H18          7.9840     1.4010     0.8840 ha         1 RLJ       0.146500
     41 H20          6.5360    -2.5550     0.0630 ha         1 RLJ       0.146500
     42 H21          4.3050    -1.6760    -0.3370 ha         1 RLJ       0.148500
@<TRIPOS>BOND
     1     1     3 ar  
     2     1     8 ar  
     3     1    29 1   
     4     2    10 1   
     5     3     5 ar  
     6     3    30 1   
     7     4    10 1   
     8     5     7 ar  
     9     5    11 1   
    10     6    10 1   
    11     7     9 ar  
    12     7    10 1   
    13     8     9 ar  
    14     8    13 1   
    15     9    31 1   
    16    11    12 3   
    17    13    14 1   
    18    13    32 1   
    19    14    15 2   
    20    14    16 1   
    21    16    17 1   
    22    16    18 1   
    23    16    19 1   
    24    17    33 1   
    25    18    34 1   
    26    18    35 1   
    27    18    36 1   
    28    19    20 1   
    29    19    37 1   
    30    19    38 1   
    31    20    21 1   
    32    21    22 ar  
    33    21    26 ar  
    34    22    23 ar  
    35    22    39 1   
    36    23    24 ar  
    37    23    40 1   
    38    24    25 ar  
    39    24    27 1   
    40    25    26 ar  
    41    25    41 1   
    42    26    42 1   
    43    27    28 3   
@<TRIPOS>SUBSTRUCTURE
     1 RLJ         1 TEMP              0 ****  ****    0 ROOT
