@<TRIPOS>MOLECULE
RLK
   58    60     1     0     0
SMALL
bcc


@<TRIPOS>ATOM
      1 C14         28.1590    57.3370     9.7310 c6         1 RLK       0.202300
      2 C11         30.4690    55.9980    10.7090 c6         1 RLK       0.188300
      3 C12         29.0700    55.4490    10.9180 c6         1 RLK       0.202300
      4 C01         29.6560    55.5850     3.0240 c3         1 RLK       0.149100
      5 N02         30.1160    55.1930     4.3390 n3         1 RLK      -0.715600
      6 C03         30.9070    53.9830     4.2620 c3         1 RLK       0.149100
      7 C04         30.8230    56.2820     4.9840 c3         1 RLK       0.169800
      8 C05         31.0470    56.0510     6.4750 c3         1 RLK      -0.046400
      9 C06         31.6630    57.2900     7.1010 c3         1 RLK      -0.193600
     10 O08         32.8220    55.9430     9.0690 o          1 RLK      -0.607800
     11 O09         32.5020    58.4120     9.3270 o          1 RLK      -0.607800
     12 N10         30.4990    56.7870     9.4810 n3         1 RLK      -0.730500
     13 N13         28.0900    56.5140    10.9260 nh         1 RLK      -0.656000
     14 C15         29.5550    57.8980     9.5390 c6         1 RLK       0.188300
     15 C16         26.8560    56.2820    11.5130 ca         1 RLK       0.199600
     16 C17         26.5200    55.0300    12.0360 ca         1 RLK      -0.199000
     17 C18         25.3270    54.8110    12.7190 ca         1 RLK       0.124600
     18 N19         25.0600    53.5470    13.2610 ns         1 RLK      -0.473100
     19 C20         25.9090    52.8670    14.0730 c          1 RLK       0.617600
     20 O21         27.0200    53.2490    14.3950 o          1 RLK      -0.585100
     21 C22         25.3620    51.5910    14.5580 cc         1 RLK       0.189500
     22 C23         25.9860    50.7050    15.3570 cd         1 RLK       0.201300
     23 O24         25.1210    49.6750    15.5570 os         1 RLK      -0.372800
     24 C25         24.0130    49.9990    14.8700 cd         1 RLK       0.732300
     25 N26         23.0060    49.1060    14.8580 nv         1 RLK      -0.926500
     26 N27         24.0940    51.1330    14.2520 nc         1 RLK      -0.748000
     27 C28         24.4080    55.8520    12.8270 ca         1 RLK      -0.087900
     28 BR1         22.7810    55.6160    13.7520 br         1 RLK      -0.097100
     29 C30         24.7010    57.0880    12.2670 ca         1 RLK      -0.056000
     30 C31         25.9060    57.3090    11.6320 ca         1 RLK      -0.193000
     31 H1          27.4750    58.1800     9.8010 h1         1 RLK       0.053450
     32 H2          27.8750    56.7580     8.8410 h1         1 RLK       0.053450
     33 H3          31.1550    55.1570    10.6320 h1         1 RLK       0.064200
     34 H4          30.7600    56.6010    11.5760 h1         1 RLK       0.064200
     35 H5          28.8520    54.6970    10.1470 h1         1 RLK       0.053450
     36 H6          29.0740    54.9440    11.8840 h1         1 RLK       0.053450
     37 H7          29.0090    56.4610     3.0970 h1         1 RLK       0.031700
     38 H8          30.4750    55.8290     2.3290 h1         1 RLK       0.031700
     39 H9          29.0740    54.7780     2.5770 h1         1 RLK       0.031700
     40 H11         31.1660    53.6170     5.2560 h1         1 RLK       0.031700
     41 H12         30.3310    53.1980     3.7700 h1         1 RLK       0.031700
     42 H13         31.8440    54.1160     3.6980 h1         1 RLK       0.031700
     43 H14         31.7910    56.4880     4.4940 h1         1 RLK       0.029700
     44 H15         30.2200    57.1870     4.8660 h1         1 RLK       0.029700
     45 H16         30.0900    55.8270     6.9500 hc         1 RLK       0.065200
     46 H17         31.7050    55.1970     6.6420 hc         1 RLK       0.065200
     47 H18         32.6370    57.5240     6.6630 h1         1 RLK       0.096700
     48 H19         31.0320    58.1710     6.9700 h1         1 RLK       0.096700
     49 H20         29.7980    58.5860    10.3560 h1         1 RLK       0.064200
     50 H21         29.5670    58.4620     8.6060 h1         1 RLK       0.064200
     51 H22         27.1790    54.1860    11.9050 ha         1 RLK       0.150000
     52 H23         24.1390    53.1480    13.1350 hn         1 RLK       0.357500
     53 H24         26.9520    50.6520    15.8300 h4         1 RLK       0.083100
     54 H25         22.9380    48.4670    15.6340 hn         1 RLK       0.434800
     55 H26         22.1190    49.4570    14.5340 hn         1 RLK       0.434800
     56 H27         23.9950    57.9040    12.3480 ha         1 RLK       0.145000
     57 H28         26.1050    58.3020    11.2560 ha         1 RLK       0.136000
     58 S07         32.0010    57.1270     8.8490 s6         1 RLK       1.199900
@<TRIPOS>BOND
     1     1    13 1   
     2     1    14 1   
     3     1    31 1   
     4     1    32 1   
     5     2     3 1   
     6     2    12 1   
     7     2    33 1   
     8     2    34 1   
     9     3    13 1   
    10     3    35 1   
    11     3    36 1   
    12     4     5 1   
    13     4    37 1   
    14     4    38 1   
    15     4    39 1   
    16     5     6 1   
    17     5     7 1   
    18     6    40 1   
    19     6    41 1   
    20     6    42 1   
    21     7     8 1   
    22     7    43 1   
    23     7    44 1   
    24     8     9 1   
    25     8    45 1   
    26     8    46 1   
    27     9    47 1   
    28     9    48 1   
    29     9    58 1   
    30    10    58 2   
    31    11    58 2   
    32    12    14 1   
    33    12    58 1   
    34    13    15 1   
    35    14    49 1   
    36    14    50 1   
    37    15    16 ar  
    38    15    30 ar  
    39    16    17 ar  
    40    16    51 1   
    41    17    18 1   
    42    17    27 ar  
    43    18    19 1   
    44    18    52 1   
    45    19    20 2   
    46    19    21 1   
    47    21    22 2   
    48    21    26 1   
    49    22    23 1   
    50    22    53 1   
    51    23    24 1   
    52    24    25 1   
    53    24    26 2   
    54    25    54 1   
    55    25    55 1   
    56    27    28 1   
    57    27    29 ar  
    58    29    30 ar  
    59    29    56 1   
    60    30    57 1   
@<TRIPOS>SUBSTRUCTURE
     1 RLK         1 TEMP              0 ****  ****    0 ROOT
