@<TRIPOS>MOLECULE
RLK
   58    60     1     0     0
SMALL
No Charge or Current Charge


@<TRIPOS>ATOM
      1 C14         27.9410    56.9560     9.5950 c6         1 RLK       0.202300
      2 C11         30.5650    56.3820    10.7420 c6         1 RLK       0.188300
      3 C12         29.2830    55.6350    11.2270 c6         1 RLK       0.202300
      4 C01         30.0930    55.4990     2.6610 c3         1 RLK       0.149100
      5 N02         30.4910    55.2260     4.0600 n3         1 RLK      -0.715600
      6 C03         31.3760    54.0400     4.1590 c3         1 RLK       0.149100
      7 C04         31.0300    56.4370     4.7320 c3         1 RLK       0.169800
      8 C05         31.2410    56.3000     6.2580 c3         1 RLK      -0.046400
      9 C06         31.6450    57.6410     6.9250 c3         1 RLK      -0.304400
     10 O08         32.9680    56.5100     8.9130 o          1 RLK      -0.537000
     11 O09         32.0570    58.8550     9.2830 o          1 RLK      -0.537000
     12 N10         30.4670    56.8370     9.3250 n3         1 RLK      -0.730500
     13 N13         28.0340    56.4280    10.9930 nh         1 RLK      -0.794400
     14 C15         29.2480    57.6800     9.1420 c6         1 RLK       0.188300
     15 C16         26.8590    56.1840    11.7400 ca         1 RLK       0.338000
     16 C17         26.5850    54.9140    12.2830 ca         1 RLK      -0.181000
     17 C18         25.4090    54.6800    13.0300 ca         1 RLK       0.032000
     18 N19         25.0860    53.4140    13.5930 ns         1 RLK      -0.147000
     19 C20         25.7950    52.2280    13.7170 c          1 RLK       0.550600
     20 O21         26.9540    52.0690    13.3400 o          1 RLK      -0.585100
     21 C22         24.9840    51.1610    14.3780 cc         1 RLK       0.189500
     22 C23         25.4670    49.9030    14.6160 cd         1 RLK       0.156900
     23 O24         24.5160    49.1450    15.2290 os         1 RLK      -0.284000
     24 C25         23.4950    50.0350    15.3070 cd         1 RLK       0.687900
     25 N26         22.3480    49.7020    15.8800 nv         1 RLK      -1.036900
     26 N27         23.6840    51.2380    14.8420 nc         1 RLK      -0.748000
     27 C28         24.5000    55.7420    13.2160 ca         1 RLK      -0.087900
     28 Br1         22.8780    55.4900    14.2130 br         1 RLK      -0.097100
     29 C30         24.7660    57.0110    12.6780 ca         1 RLK      -0.038000
     30 C31         25.9420    57.2280    11.9450 ca         1 RLK      -0.175000
     31 H1          27.1040    57.6620     9.4980 h1         1 RLK       0.053450
     32 H2          27.7450    56.1250     8.9020 h1         1 RLK       0.053450
     33 H3          31.4200    55.7030    10.8740 h1         1 RLK       0.064200
     34 H4          30.7350    57.2420    11.4060 h1         1 RLK       0.064200
     35 H5          29.2180    54.6740    10.6960 h1         1 RLK       0.053450
     36 H6          29.3990    55.4120    12.2980 h1         1 RLK       0.053450
     37 H7          29.3700    56.3250     2.6170 h1         1 RLK       0.031700
     38 H8          30.9640    55.7720     2.0510 h1         1 RLK       0.031700
     39 H9          29.6210    54.6150     2.2110 h1         1 RLK       0.031700
     40 H11         31.5320    53.7440     5.2040 h1         1 RLK       0.031700
     41 H12         30.9310    53.1810     3.6390 h1         1 RLK       0.031700
     42 H13         32.3560    54.2430     3.7060 h1         1 RLK       0.031700
     43 H14         31.9850    56.7270     4.2710 h1         1 RLK       0.029700
     44 H15         30.3340    57.2720     4.5730 h1         1 RLK       0.029700
     45 H16         30.3130    55.9260     6.7080 hc         1 RLK       0.065200
     46 H17         32.0200    55.5530     6.4550 hc         1 RLK       0.065200
     47 H18         32.5860    58.0120     6.5050 h1         1 RLK       0.096700
     48 H19         30.8690    58.3990     6.7810 h1         1 RLK       0.096700
     49 H20         29.3410    58.6140     9.7160 h1         1 RLK       0.064200
     50 H21         29.1210    57.9640     8.0880 h1         1 RLK       0.064200
     51 H22         27.2860    54.1100    12.1000 ha         1 RLK       0.132000
     52 H23         24.1520    53.3650    13.9820 hn         1 RLK       0.191000
     53 H24         26.4280    49.4510    14.4070 h4         1 RLK       0.083100
     54 H25         22.3750    48.9080    16.5100 hn         1 RLK       0.490000
     55 H26         21.7620    50.4780    16.1610 hn         1 RLK       0.490000
     56 H27         24.0640    57.8270    12.8310 ha         1 RLK       0.127000
     57 H28         26.1470    58.2150    11.5420 ha         1 RLK       0.118000
     58 S07         31.9200    57.5150     8.7050 s6         1 RLK       1.169100
@<TRIPOS>BOND
     1     1    13 1   
     2     1    14 1   
     3     1    31 1   
     4     1    32 1   
     5     2     3 1   
     6     2    12 1   
     7     2    33 1   
     8     2    34 1   
     9     3    13 1   
    10     3    35 1   
    11     3    36 1   
    12     4     5 1   
    13     4    37 1   
    14     4    38 1   
    15     4    39 1   
    16     5     6 1   
    17     5     7 1   
    18     6    40 1   
    19     6    41 1   
    20     6    42 1   
    21     7     8 1   
    22     7    43 1   
    23     7    44 1   
    24     8     9 1   
    25     8    45 1   
    26     8    46 1   
    27     9    47 1   
    28     9    48 1   
    29     9    58 1   
    30    10    58 2   
    31    11    58 2   
    32    12    14 1   
    33    12    58 1   
    34    13    15 1   
    35    14    49 1   
    36    14    50 1   
    37    15    16 ar  
    38    15    30 ar  
    39    16    17 ar  
    40    16    51 1   
    41    17    18 1   
    42    17    27 ar  
    43    18    19 1   
    44    18    52 1   
    45    19    20 2   
    46    19    21 1   
    47    21    22 2   
    48    21    26 1   
    49    22    23 1   
    50    22    53 1   
    51    23    24 1   
    52    24    25 1   
    53    24    26 2   
    54    25    54 1   
    55    25    55 1   
    56    27    28 1   
    57    27    29 ar  
    58    29    30 ar  
    59    29    56 1   
    60    30    57 1   
@<TRIPOS>SUBSTRUCTURE
     1 RLK         1 TEMP              0 ****  ****    0 ROOT
