@<TRIPOS>MOLECULE
RLL
   48    50     1     0     0
SMALL
bcc


@<TRIPOS>ATOM
      1 CAA          0.8140     1.5750    -1.9600 c3         1 RLL      -0.083100
      2 NAB         -8.2980    -1.4440    -0.5990 n1         1 RLL      -0.328800
      3 NAC          8.7750    -2.6580     0.7940 n1         1 RLL      -0.370800
      4 OAD         -0.7130    -1.0950    -1.7900 o          1 RLL      -0.567100
      5 OAE          0.4670     1.4690     0.3730 oh         1 RLL      -0.585800
      6 FAF         -5.8110     2.2690     1.5790 f          1 RLL      -0.226633
      7 FAG         -7.0210     0.5170     1.8840 f          1 RLL      -0.226633
      8 FAH         -7.3090     1.7300     0.1320 f          1 RLL      -0.226633
      9 CAI         -7.1960    -1.1100    -0.5430 cg         1 RLL       0.221800
     10 CAK          7.4330     2.1210     0.5940 ca         1 RLL      -0.100000
     11 CAL          6.1880     2.7220     0.3390 ca         1 RLL      -0.138000
     12 CAM         -3.5510    -1.1720    -1.1910 ca         1 RLL      -0.137000
     13 CAN         -4.8960    -1.4970    -1.1930 ca         1 RLL      -0.068000
     14 CAO          5.4080    -2.2550     0.0910 ca         1 RLL      -0.034000
     15 CAP          4.1650    -1.6630    -0.1590 ca         1 RLL      -0.251000
     16 CAQ          7.5560     0.7570     0.5980 ca         1 RLL      -0.130000
     17 CAR          5.0860     1.9480     0.0930 ca         1 RLL      -0.090000
     18 CAS         -4.0490     0.7220     0.2160 ca         1 RLL      -0.145000
     19 CAT          1.7190    -0.3640    -0.6050 c3         1 RLL       0.113400
     20 NAU         -1.7950     0.3620    -0.4080 ns         1 RLL      -0.466100
     21 OAV          2.9100     0.3640    -0.3810 os         1 RLL      -0.312900
     22 CAW         -0.7040    -0.1410    -1.0380 c          1 RLL       0.640100
     23 CAX         -3.1140    -0.0540    -0.4830 ca         1 RLL       0.091600
     24 CAY         -5.8250    -0.7270    -0.5020 ca         1 RLL       0.004000
     25 CAZ          6.5240    -1.4920     0.3400 ca         1 RLL      -0.053000
     26 CBA          4.0480    -0.2910    -0.1590 ca         1 RLL       0.185100
     27 CBB         -5.3850     0.3970     0.2100 ca         1 RLL      -0.132300
     28 CBC          6.4390    -0.0680     0.3460 ca         1 RLL       0.025000
     29 CBD          5.1850     0.5390     0.0910 ca         1 RLL      -0.067000
     30 CBE          0.5880     0.6520    -0.7640 c3         1 RLL       0.088800
     31 CBF         -6.3790     1.2380     0.9580 c3         1 RLL       0.724200
     32 HAA          1.7220     2.1610    -1.8290 hc         1 RLL       0.061700
     33 HAAA         0.9040     1.0020    -2.8810 hc         1 RLL       0.061700
     34 HAAB        -0.0210     2.2690    -2.0720 hc         1 RLL       0.061700
     35 HOAE         0.5410     0.9370     1.1740 ho         1 RLL       0.418000
     36 HAK          8.2990     2.7390     0.7900 ha         1 RLL       0.137000
     37 HAL          6.1010     3.8000     0.3380 ha         1 RLL       0.136000
     38 HAM         -2.8640    -1.7930    -1.7400 ha         1 RLL       0.176000
     39 HAN         -5.2270    -2.3680    -1.7410 ha         1 RLL       0.154000
     40 HAO          5.4820    -3.3340     0.0880 ha         1 RLL       0.143000
     41 HAP          3.3190    -2.3070    -0.3490 ha         1 RLL       0.144000
     42 HAQ          8.5200     0.3070     0.7980 ha         1 RLL       0.145000
     43 HAR          4.1330     2.4210    -0.1010 ha         1 RLL       0.147000
     44 HAS         -3.7010     1.5920     0.7580 ha         1 RLL       0.154000
     45 HAT          1.8060    -0.9800    -1.5030 h1         1 RLL       0.061200
     46 HATA         1.5170    -1.0300     0.2440 h1         1 RLL       0.061200
     47 HNAU        -1.6170     1.1700     0.1750 hn         1 RLL       0.343500
     48 CAJ          7.7660    -2.1350     0.5910 cg         1 RLL       0.241800
@<TRIPOS>BOND
     1     1    30 1   
     2     1    32 1   
     3     1    33 1   
     4     1    34 1   
     5     2     9 3   
     6     3    48 3   
     7     4    22 2   
     8     5    30 1   
     9     5    35 1   
    10     6    31 1   
    11     7    31 1   
    12     8    31 1   
    13     9    24 1   
    14    10    11 ar  
    15    10    16 ar  
    16    10    36 1   
    17    11    17 ar  
    18    11    37 1   
    19    12    13 ar  
    20    12    23 ar  
    21    12    38 1   
    22    13    24 ar  
    23    13    39 1   
    24    14    15 ar  
    25    14    25 ar  
    26    14    40 1   
    27    15    26 ar  
    28    15    41 1   
    29    16    28 ar  
    30    16    42 1   
    31    17    29 ar  
    32    17    43 1   
    33    18    23 ar  
    34    18    27 ar  
    35    18    44 1   
    36    19    21 1   
    37    19    30 1   
    38    19    45 1   
    39    19    46 1   
    40    20    22 1   
    41    20    23 1   
    42    20    47 1   
    43    21    26 1   
    44    22    30 1   
    45    24    27 ar  
    46    25    28 ar  
    47    25    48 1   
    48    26    29 ar  
    49    27    31 1   
    50    28    29 ar  
@<TRIPOS>SUBSTRUCTURE
     1 RLL         1 TEMP              0 ****  ****    0 ROOT
