@<TRIPOS>MOLECULE
RLL
   48    50     1     0     0
SMALL
No Charge or Current Charge


@<TRIPOS>ATOM
      1 CAA          0.9820     1.5760    -2.5130 c3         1 RLL      -0.083100
      2 NAB         -8.4030    -1.5160    -0.2450 n1         1 RLL      -0.418000
      3 NAC          8.5610    -2.8250     1.3860 n1         1 RLL      -0.460000
      4 OAD         -0.8420    -0.8870    -2.3920 o          1 RLL      -0.567100
      5 OAE          0.4590     1.6940    -0.1600 oh         1 RLL      -0.648000
      6 FAF         -5.5000     1.7730     2.3340 f          1 RLL      -0.105333
      7 FAG         -6.6910    -0.0290     2.4700 f          1 RLL      -0.105333
      8 FAH         -7.2540     1.5540     1.0840 f          1 RLL      -0.105333
      9 CAI         -7.2880    -1.1730    -0.3040 cg         1 RLL       0.311000
     10 CAK          7.4290     2.0940     0.8790 ca         1 RLL      -0.082000
     11 CAL          6.2400     2.7220     0.4870 ca         1 RLL      -0.120000
     12 CAM         -3.7560    -0.9840    -1.5240 ca         1 RLL      -0.119000
     13 CAN         -5.1060    -1.3420    -1.3850 ca         1 RLL      -0.050000
     14 CAO          5.2770    -2.2730     0.3450 ca         1 RLL      -0.016000
     15 CAP          4.0900    -1.6370    -0.0440 ca         1 RLL      -0.233000
     16 CAQ          7.4960     0.6930     0.9450 ca         1 RLL      -0.112000
     17 CAR          5.1140     1.9510     0.1600 ca         1 RLL      -0.072000
     18 CAS         -3.9880     0.5590     0.3340 ca         1 RLL      -0.127000
     19 CAT          1.6720    -0.2870    -0.8910 c3         1 RLL       0.136600
     20 NAU         -1.8270     0.3880    -0.7380 ns         1 RLL      -0.140000
     21 OAV          2.8630     0.4190    -0.4850 os         1 RLL      -0.336100
     22 CAW         -0.7630    -0.0050    -1.5410 c          1 RLL       0.573100
     23 CAX         -3.1840    -0.0290    -0.6610 ca         1 RLL      -0.001000
     24 CAY         -5.9100    -0.7570    -0.3890 ca         1 RLL       0.004000
     25 CAZ          6.4180    -1.5210     0.6780 ca         1 RLL      -0.053000
     26 CBA          4.0250    -0.2310    -0.1070 ca         1 RLL       0.185100
     27 CBB         -5.3520     0.2120     0.4910 ca         1 RLL      -0.132300
     28 CBC          6.3690    -0.1030     0.6190 ca         1 RLL       0.025000
     29 CBD          5.1650     0.5390     0.2230 ca         1 RLL      -0.067000
     30 CBE          0.5800     0.7560    -1.2610 c3         1 RLL       0.112000
     31 CBF         -6.1990     0.8800     1.5970 c3         1 RLL       0.360300
     32 HAA          1.9100     2.1350    -2.3420 hc         1 RLL       0.061700
     33 HAAA         1.1370     0.9200    -3.3780 hc         1 RLL       0.061700
     34 HAAB         0.1960     2.2970    -2.7720 hc         1 RLL       0.061700
     35 HOAE         1.3750     1.8640     0.1570 ho         1 RLL       0.457000
     36 HAK          8.3020     2.6930     1.1320 ha         1 RLL       0.119000
     37 HAL          6.1900     3.8070     0.4350 ha         1 RLL       0.118000
     38 HAM         -3.1790    -1.4600    -2.3100 ha         1 RLL       0.158000
     39 HAN         -5.5300    -2.0830    -2.0620 ha         1 RLL       0.136000
     40 HAO          5.3090    -3.3610     0.3880 ha         1 RLL       0.125000
     41 HAP          3.2330    -2.2570    -0.2910 ha         1 RLL       0.126000
     42 HAQ          8.4370     0.2440     1.2520 ha         1 RLL       0.127000
     43 HAR          4.2040     2.4630    -0.1430 ha         1 RLL       0.129000
     44 HAS         -3.5330     1.2970     0.9920 ha         1 RLL       0.136000
     45 HAT          1.8770    -0.9280    -1.7590 h1         1 RLL       0.061200
     46 HATA         1.3040    -0.9220    -0.0740 h1         1 RLL       0.061200
     47 HNAU        -1.5790     1.1190    -0.0820 hn         1 RLL       0.177000
     48 CAJ          7.6040    -2.2360     1.0700 cg         1 RLL       0.331000
@<TRIPOS>BOND
     1     1    30 1   
     2     1    32 1   
     3     1    33 1   
     4     1    34 1   
     5     2     9 3   
     6     3    48 3   
     7     4    22 2   
     8     5    30 1   
     9     5    35 1   
    10     6    31 1   
    11     7    31 1   
    12     8    31 1   
    13     9    24 1   
    14    10    11 ar  
    15    10    16 ar  
    16    10    36 1   
    17    11    17 ar  
    18    11    37 1   
    19    12    13 ar  
    20    12    23 ar  
    21    12    38 1   
    22    13    24 ar  
    23    13    39 1   
    24    14    15 ar  
    25    14    25 ar  
    26    14    40 1   
    27    15    26 ar  
    28    15    41 1   
    29    16    28 ar  
    30    16    42 1   
    31    17    29 ar  
    32    17    43 1   
    33    18    23 ar  
    34    18    27 ar  
    35    18    44 1   
    36    19    21 1   
    37    19    30 1   
    38    19    45 1   
    39    19    46 1   
    40    20    22 1   
    41    20    23 1   
    42    20    47 1   
    43    21    26 1   
    44    22    30 1   
    45    24    27 ar  
    46    25    28 ar  
    47    25    48 1   
    48    26    29 ar  
    49    27    31 1   
    50    28    29 ar  
@<TRIPOS>SUBSTRUCTURE
     1 RLL         1 TEMP              0 ****  ****    0 ROOT
