@<TRIPOS>MOLECULE
RLM
   26    27     1     0     0
SMALL
bcc


@<TRIPOS>ATOM
      1 CAI         -1.5070    -1.5530     0.2420 ca         1 RLM      -0.150000
      2 CAN         -2.7210    -0.9000     0.3290 ca         1 RLM       0.001400
      3 CLC         -4.1820    -1.8300     0.3860 cl         1 RLM      -0.095900
      4 CAP         -2.8260     0.4890     0.3600 ca         1 RLM       0.118100
      5 OAA         -3.9810     1.1670     0.4270 oh         1 RLM      -0.472100
      6 CAO         -1.6270     1.1930     0.3200 ca         1 RLM       0.001400
      7 CLD         -1.6960     2.9190     0.3740 cl         1 RLM      -0.095900
      8 CAJ         -0.3940     0.5680     0.2550 ca         1 RLM      -0.150000
      9 CAQ         -0.3160    -0.8240     0.2050 ca         1 RLM       0.167600
     10 NAK          0.8800    -1.5150     0.1360 nu         1 RLM      -0.653000
     11 CAM          2.1470    -0.9480    -0.0320 ca         1 RLM       0.117600
     12 CAG          3.2010    -1.3440     0.7850 ca         1 RLM      -0.126000
     13 CAE          4.4800    -0.8400     0.5990 ca         1 RLM      -0.168000
     14 CAL          4.7270     0.0980    -0.3970 ca         1 RLM       0.121100
     15 OAB          5.9460     0.6390    -0.6110 oh         1 RLM      -0.492100
     16 CAF          3.6770     0.5030    -1.2180 ca         1 RLM      -0.168000
     17 CAH          2.4090    -0.0260    -1.0480 ca         1 RLM      -0.126000
     18 HAI         -1.4840    -2.6350     0.2060 ha         1 RLM       0.156500
     19 HAA         -4.7350     0.5630     0.4390 ho         1 RLM       0.439000
     20 HAJ          0.4990     1.1780     0.2550 ha         1 RLM       0.156500
     21 HAK          0.8680    -2.4350     0.5480 hn         1 RLM       0.432800
     22 HAG          3.0260    -2.0600     1.5800 ha         1 RLM       0.138500
     23 HAH          1.6200     0.2790    -1.7240 ha         1 RLM       0.138500
     24 HAE          5.2810    -1.1730     1.2500 ha         1 RLM       0.141500
     25 HAB          6.5840     0.2820     0.0160 ho         1 RLM       0.425000
     26 HAF          3.8570     1.2210    -2.0090 ha         1 RLM       0.141500
@<TRIPOS>BOND
     1     1     2 ar  
     2     1     9 ar  
     3     1    18 1   
     4     2     3 1   
     5     2     4 ar  
     6     4     5 1   
     7     4     6 ar  
     8     5    19 1   
     9     6     7 1   
    10     6     8 ar  
    11     8     9 ar  
    12     8    20 1   
    13     9    10 1   
    14    10    11 1   
    15    10    21 1   
    16    11    12 ar  
    17    11    17 ar  
    18    12    13 ar  
    19    12    22 1   
    20    13    14 ar  
    21    13    24 1   
    22    14    15 1   
    23    14    16 ar  
    24    15    25 1   
    25    16    17 ar  
    26    16    26 1   
    27    17    23 1   
@<TRIPOS>SUBSTRUCTURE
     1 RLM         1 TEMP              0 ****  ****    0 ROOT
