@<TRIPOS>MOLECULE
RLM
   26    27     1     0     0
SMALL
No Charge or Current Charge


@<TRIPOS>ATOM
      1 CAI         -1.4840    -1.5020     0.3360 ca         1 RLM      -0.132000
      2 CAN         -2.7710    -0.9450     0.2510 ca         1 RLM       0.093000
      3 ClC         -4.1670    -2.0210     0.1770 cl         1 RLM      -0.187500
      4 CAP         -2.9420     0.4560     0.2260 ca         1 RLM       0.118100
      5 OAA         -4.2010     1.0010     0.1440 oh         1 RLM      -0.511100
      6 CAO         -1.8030     1.2870     0.2950 ca         1 RLM       0.093000
      7 ClD         -1.9590     3.0450     0.2860 cl         1 RLM      -0.187500
      8 CAJ         -0.5190     0.7230     0.3790 ca         1 RLM      -0.132000
      9 CAQ         -0.3530    -0.6730     0.3860 ca         1 RLM       0.306000
     10 NAK          0.9150    -1.2570     0.4830 nu         1 RLM      -0.985000
     11 CAM          2.2020    -0.8220     0.1460 ca         1 RLM       0.256000
     12 CAG          3.3120    -1.4010     0.7890 ca         1 RLM      -0.108000
     13 CAE          4.6200    -0.9950     0.4630 ca         1 RLM      -0.150000
     14 CAL          4.8240    -0.0120    -0.5190 ca         1 RLM       0.121100
     15 OAB          6.0860     0.3870    -0.8440 oh         1 RLM      -0.531100
     16 CAF          3.7250     0.5570    -1.1780 ca         1 RLM      -0.150000
     17 CAH          2.4170     0.1510    -0.8510 ca         1 RLM      -0.108000
     18 HAI         -1.3680    -2.5810     0.3530 ha         1 RLM       0.138500
     19 HAA         -4.8540     0.2690     0.1090 ho         1 RLM       0.478000
     20 HAJ          0.3430     1.3760     0.4570 ha         1 RLM       0.138500
     21 HAK          0.8970    -2.1970     0.8850 hn         1 RLM       0.488000
     22 HAG          3.1610    -2.1610     1.5510 ha         1 RLM       0.120500
     23 HAH          1.5780     0.5810    -1.3880 ha         1 RLM       0.120500
     24 HAE          5.4660    -1.4480     0.9760 ha         1 RLM       0.123500
     25 HAB          6.7260    -0.1130    -0.2920 ho         1 RLM       0.464000
     26 HAF          3.8830     1.3090    -1.9480 ha         1 RLM       0.123500
@<TRIPOS>BOND
     1     1     2 ar  
     2     1     9 ar  
     3     1    18 1   
     4     2     3 1   
     5     2     4 ar  
     6     4     5 1   
     7     4     6 ar  
     8     5    19 1   
     9     6     7 1   
    10     6     8 ar  
    11     8     9 ar  
    12     8    20 1   
    13     9    10 1   
    14    10    11 1   
    15    10    21 1   
    16    11    12 ar  
    17    11    17 ar  
    18    12    13 ar  
    19    12    22 1   
    20    13    14 ar  
    21    13    24 1   
    22    14    15 1   
    23    14    16 ar  
    24    15    25 1   
    25    16    17 ar  
    26    16    26 1   
    27    17    23 1   
@<TRIPOS>SUBSTRUCTURE
     1 RLM         1 TEMP              0 ****  ****    0 ROOT
