@<TRIPOS>MOLECULE
RLN
   36    38     1     0     0
SMALL
No Charge or Current Charge


@<TRIPOS>ATOM
      1 C18        -39.2950   -40.3520    -4.9550 cc         1 RLN      -0.289800
      2 C17        -39.8690   -39.4950    -3.9550 ca         1 RLN       0.356800
      3 C15        -40.1090   -38.7070    -1.8190 ca         1 RLN       0.327900
      4 C14        -41.0850   -37.7750    -2.2280 ca         1 RLN      -0.137000
      5 C13        -41.4760   -37.7010    -3.5920 ca         1 RLN      -0.067600
      6 C11        -42.5290   -36.7050    -4.0720 c          1 RLN       0.604700
      7 C19        -39.8220   -40.1080    -6.2130 cd         1 RLN      -0.177400
      8 C02        -44.7240   -32.6700     2.7670 c          1 RLN       0.719000
      9 C05        -45.1620   -32.8190     0.3120 ca         1 RLN       0.024700
     10 C06        -45.8570   -33.9780    -0.0860 ca         1 RLN      -0.117500
     11 C07        -45.5120   -34.6410    -1.2760 ca         1 RLN      -0.097000
     12 C08        -44.4680   -34.1530    -2.0840 ca         1 RLN      -0.171300
     13 C09        -44.0910   -34.8730    -3.3690 c3         1 RLN       0.157300
     14 C21        -40.8160   -38.6150    -4.4540 ca         1 RLN      -0.186000
     15 C22        -43.7700   -32.9970    -1.6870 ca         1 RLN      -0.097000
     16 C23        -44.1160   -32.3340    -0.4970 ca         1 RLN      -0.117500
     17 N10        -43.0750   -35.8850    -3.1100 ns         1 RLN      -0.481900
     18 N16        -39.4990   -39.5650    -2.6670 nb         1 RLN      -0.631000
     19 O01        -43.6210   -32.1920     2.9880 o          1 RLN      -0.725500
     20 O03        -45.1650   -33.6490     3.3510 o          1 RLN      -0.725500
     21 O12        -42.8890   -36.6130    -5.2380 o          1 RLN      -0.616100
     22 S20        -41.0470   -38.8090    -6.2150 ss         1 RLN       0.166400
     23 H181       -38.5380   -41.1040    -4.7510 ha         1 RLN       0.210000
     24 H151       -39.8080   -38.7670    -0.7740 h4         1 RLN       0.019100
     25 H141       -41.5160   -37.1290    -1.4700 ha         1 RLN       0.122000
     26 H191       -39.5750   -40.6020    -7.1480 h4         1 RLN       0.213000
     27 H042       -45.3010   -31.0360     1.4590 hc         1 RLN       0.035700
     28 H041       -46.6100   -32.2720     1.7670 hc         1 RLN       0.035700
     29 H061       -46.6650   -34.3660     0.5290 ha         1 RLN       0.110500
     30 H071       -46.0570   -35.5360    -1.5690 ha         1 RLN       0.095000
     31 H091       -43.7020   -34.1530    -4.1020 h1         1 RLN       0.054200
     32 H092       -44.9780   -35.3560    -3.8020 h1         1 RLN       0.054200
     33 H221       -42.9580   -32.6110    -2.2990 ha         1 RLN       0.095000
     34 H231       -43.5680   -31.4430    -0.2010 ha         1 RLN       0.110500
     35 H101       -42.7480   -35.9960    -2.1610 hn         1 RLN       0.318500
     36 C04        -45.5410   -32.0960     1.6010 c3         1 RLN      -0.191100
@<TRIPOS>BOND
     1     1     2 1   
     2     1     7 2   
     3     1    23 1   
     4     2    14 ar  
     5     2    18 ar  
     6     3     4 ar  
     7     3    18 ar  
     8     3    24 1   
     9     4     5 ar  
    10     4    25 1   
    11     5     6 1   
    12     5    14 ar  
    13     6    17 1   
    14     6    21 2   
    15     7    22 1   
    16     7    26 1   
    17     8    19 1   
    18     8    20 1   
    19     8    36 1   
    20     9    10 ar  
    21     9    16 ar  
    22     9    36 1   
    23    10    11 ar  
    24    10    29 1   
    25    11    12 ar  
    26    11    30 1   
    27    12    13 1   
    28    12    15 ar  
    29    13    17 1   
    30    13    31 1   
    31    13    32 1   
    32    14    22 1   
    33    15    16 ar  
    34    15    33 1   
    35    16    34 1   
    36    17    35 1   
    37    27    36 1   
    38    28    36 1   
@<TRIPOS>SUBSTRUCTURE
     1 RLN         1 TEMP              0 ****  ****    0 ROOT
