@<TRIPOS>MOLECULE
RLN
   36    38     1     0     0
SMALL
abcg2


@<TRIPOS>ATOM
      1 C18        -38.5990   -38.7330    -4.3980 cc         1 RLN      -0.289800
      2 C17        -39.8530   -39.0000    -3.7560 ca         1 RLN       0.356800
      3 C15        -41.3300   -40.1420    -2.4490 ca         1 RLN       0.327900
      4 C14        -42.3370   -39.1960    -2.6620 ca         1 RLN      -0.137000
      5 C13        -42.0920   -38.0890    -3.4660 ca         1 RLN      -0.067600
      6 C11        -43.1020   -37.0160    -3.7430 c          1 RLN       0.604700
      7 C19        -38.6360   -37.5970    -5.1320 cd         1 RLN      -0.177400
      8 C02        -43.4810   -32.0600     2.2030 c          1 RLN       0.719000
      9 C05        -44.5400   -32.6850    -0.0740 ca         1 RLN       0.024700
     10 C06        -45.6880   -33.4740    -0.0450 ca         1 RLN      -0.117500
     11 C07        -45.8830   -34.4960    -0.9710 ca         1 RLN      -0.097000
     12 C08        -44.9370   -34.7510    -1.9590 ca         1 RLN      -0.171300
     13 C09        -45.1380   -35.8660    -2.9570 c3         1 RLN       0.157300
     14 C21        -40.8240   -38.0050    -4.0450 ca         1 RLN      -0.186000
     15 C22        -43.7890   -33.9550    -2.0020 ca         1 RLN      -0.097000
     16 C23        -43.5970   -32.9410    -1.0760 ca         1 RLN      -0.117500
     17 N10        -44.1080   -36.8930    -2.8610 ns         1 RLN      -0.481900
     18 N16        -40.1100   -40.0570    -2.9690 nb         1 RLN      -0.631000
     19 O01        -43.0990   -31.1220     2.9470 o          1 RLN      -0.725500
     20 O03        -43.2850   -33.2850     2.3890 o          1 RLN      -0.725500
     21 O12        -42.9740   -36.2950    -4.7360 o          1 RLN      -0.616100
     22 S20        -40.1790   -36.7930    -5.1060 ss         1 RLN       0.166400
     23 H181       -37.7340   -39.3740    -4.2990 ha         1 RLN       0.210000
     24 H151       -41.5330   -41.0050    -1.8240 h4         1 RLN       0.019100
     25 H141       -43.3030   -39.3560    -2.2040 ha         1 RLN       0.122000
     26 H191       -37.8370   -37.1690    -5.7190 h4         1 RLN       0.213000
     27 H042       -43.7690   -30.7730     0.5070 hc         1 RLN       0.035700
     28 H041       -45.2480   -31.2330     1.3270 hc         1 RLN       0.035700
     29 H061       -46.4370   -33.2950     0.7180 ha         1 RLN       0.110500
     30 H071       -46.7810   -35.1010    -0.9230 ha         1 RLN       0.095000
     31 H091       -45.1090   -35.4840    -3.9760 h1         1 RLN       0.054200
     32 H092       -46.1090   -36.3360    -2.7990 h1         1 RLN       0.054200
     33 H221       -43.0430   -34.1340    -2.7680 ha         1 RLN       0.095000
     34 H231       -42.7000   -32.3330    -1.1270 ha         1 RLN       0.110500
     35 H101       -44.0850   -37.4400    -2.0150 hn         1 RLN       0.318500
     36 C04        -44.2960   -31.6200     0.9520 c3         1 RLN      -0.191100
@<TRIPOS>BOND
     1     1     2 1   
     2     1     7 2   
     3     1    23 1   
     4     2    14 ar  
     5     2    18 ar  
     6     3     4 ar  
     7     3    18 ar  
     8     3    24 1   
     9     4     5 ar  
    10     4    25 1   
    11     5     6 1   
    12     5    14 ar  
    13     6    17 1   
    14     6    21 2   
    15     7    22 1   
    16     7    26 1   
    17     8    19 1   
    18     8    20 1   
    19     8    36 1   
    20     9    10 ar  
    21     9    16 ar  
    22     9    36 1   
    23    10    11 ar  
    24    10    29 1   
    25    11    12 ar  
    26    11    30 1   
    27    12    13 1   
    28    12    15 ar  
    29    13    17 1   
    30    13    31 1   
    31    13    32 1   
    32    14    22 1   
    33    15    16 ar  
    34    15    33 1   
    35    16    34 1   
    36    17    35 1   
    37    27    36 1   
    38    28    36 1   
@<TRIPOS>SUBSTRUCTURE
     1 RLN         1 TEMP              0 ****  ****    0 ROOT
