@<TRIPOS>MOLECULE
RLO
   45    47     1     0     0
SMALL
abcg2


@<TRIPOS>ATOM
      1 C13         23.8710    58.0800   -10.5040 ca         1 RLO      -0.079000
      2 C15         22.4590    59.2760   -12.1140 ca         1 RLO       0.267000
      3 C17         24.3130    60.3850   -11.0340 ca         1 RLO      -0.095000
      4 C20         20.9390    57.0260   -12.5200 ca         1 RLO      -0.168000
      5 C21         20.7010    58.2520   -13.1790 ca         1 RLO       0.351900
      6 C01         28.1830    57.1530    -7.7380 c6         1 RLO       0.168300
      7 C02         29.4950    57.2550    -6.9650 c6         1 RLO       0.125300
      8 C03         30.5050    58.1330    -7.7100 c6         1 RLO       0.090300
      9 C04         30.6430    57.7180    -9.1650 c6         1 RLO       0.149300
     10 C05         29.2650    57.6780    -9.8250 c6         1 RLO       0.174300
     11 C06         29.2940    57.2240   -11.2680 c3         1 RLO       0.173600
     12 C07         27.3190    58.4190    -7.6000 c3         1 RLO      -0.073200
     13 O08         30.0150    55.9380    -6.7900 oh         1 RLO      -0.704000
     14 O09         31.8060    58.0190    -7.1190 oh         1 RLO      -0.675000
     15 O10         31.4550    58.6450    -9.8810 oh         1 RLO      -0.726000
     16 O11         28.4160    56.7900    -9.1020 os         1 RLO      -0.426000
     17 O12         29.9130    55.9410   -11.3650 oh         1 RLO      -0.715000
     18 C14         22.7790    58.0860   -11.3960 ca         1 RLO      -0.083000
     19 C16         23.2580    60.4230   -11.9050 ca         1 RLO      -0.083000
     20 C18         24.6410    59.2090   -10.3040 ca         1 RLO      -0.047800
     21 C19         21.9760    56.9440   -11.6310 ca         1 RLO      -0.058000
     22 C23         26.1030    58.3470    -8.4630 c2         1 RLO      -0.189200
     23 N24         21.4210    59.3370   -12.9950 nb         1 RLO      -0.660000
     24 H1          24.1020    57.1560    -9.9890 ha         1 RLO       0.118000
     25 H2          24.9210    61.2700   -10.8860 ha         1 RLO       0.115000
     26 H3          20.3020    56.1750   -12.7250 ha         1 RLO       0.124000
     27 H4          19.8800    58.3260   -13.8860 h4         1 RLO       0.019100
     28 H7          27.6210    56.3090    -7.3320 h1         1 RLO       0.095700
     29 H8          29.2910    57.7040    -5.9850 h1         1 RLO       0.035700
     30 H9          30.1760    59.1750    -7.6740 h1         1 RLO       0.047700
     31 H10         31.0840    56.7190    -9.2100 h1         1 RLO       0.087700
     32 H11         28.8480    58.6930    -9.8220 h1         1 RLO       0.042700
     33 H12         29.8440    57.9670   -11.8520 h1         1 RLO       0.038700
     34 H13         28.2640    57.1850   -11.6350 h1         1 RLO       0.038700
     35 H14         27.8870    59.3220    -7.8280 hc         1 RLO       0.051200
     36 H15         27.0310    58.4840    -6.5450 hc         1 RLO       0.051200
     37 H16         30.9460    56.0380    -6.5470 ho         1 RLO       0.517000
     38 H17         31.8440    58.5810    -6.3340 ho         1 RLO       0.449000
     39 H18         32.2760    58.7490    -9.3820 ho         1 RLO       0.517000
     40 H19         29.9800    55.7110   -12.2990 ho         1 RLO       0.500000
     41 H20         23.0180    61.3250   -12.4530 ha         1 RLO       0.132000
     42 H21         22.1940    56.0230   -11.1030 ha         1 RLO       0.120000
     43 H5          26.4440    60.1120    -9.5150 ha         1 RLO       0.169000
     44 H6          25.4620    57.4830    -8.3090 ha         1 RLO       0.177000
     45 C22         25.7930    59.2490    -9.3960 ce         1 RLO      -0.165200
@<TRIPOS>BOND
     1     1    18 ar  
     2     1    20 ar  
     3     1    24 1   
     4     2    18 ar  
     5     2    19 ar  
     6     2    23 ar  
     7     3    19 ar  
     8     3    20 ar  
     9     3    25 1   
    10     4     5 ar  
    11     4    21 ar  
    12     4    26 1   
    13     5    23 ar  
    14     5    27 1   
    15     6     7 1   
    16     6    12 1   
    17     6    16 1   
    18     6    28 1   
    19     7     8 1   
    20     7    13 1   
    21     7    29 1   
    22     8     9 1   
    23     8    14 1   
    24     8    30 1   
    25     9    10 1   
    26     9    15 1   
    27     9    31 1   
    28    10    11 1   
    29    10    16 1   
    30    10    32 1   
    31    11    17 1   
    32    11    33 1   
    33    11    34 1   
    34    12    22 1   
    35    12    35 1   
    36    12    36 1   
    37    13    37 1   
    38    14    38 1   
    39    15    39 1   
    40    17    40 1   
    41    18    21 ar  
    42    19    41 1   
    43    20    45 1   
    44    21    42 1   
    45    22    44 1   
    46    22    45 2   
    47    43    45 1   
@<TRIPOS>SUBSTRUCTURE
     1 RLO         1 TEMP              0 ****  ****    0 ROOT
