@<TRIPOS>MOLECULE
RLO
   45    47     1     0     0
SMALL
No Charge or Current Charge


@<TRIPOS>ATOM
      1 C13         23.8360    58.1040   -10.5900 ca         1 RLO      -0.079000
      2 C15         22.3470    59.3160   -12.1240 ca         1 RLO       0.267000
      3 C17         24.2480    60.4450   -11.0740 ca         1 RLO      -0.095000
      4 C20         20.8420    57.0260   -12.4910 ca         1 RLO      -0.168000
      5 C21         20.5400    58.2400   -13.1260 ca         1 RLO       0.351900
      6 C01         28.2020    57.0950    -7.7210 c6         1 RLO       0.168300
      7 C02         29.5360    57.1830    -6.9030 c6         1 RLO       0.125300
      8 C03         30.5530    58.1260    -7.6200 c6         1 RLO       0.090300
      9 C04         30.7310    57.7270    -9.1190 c6         1 RLO       0.149300
     10 C05         29.3410    57.6510    -9.8290 c6         1 RLO       0.174300
     11 C06         29.4410    57.1570   -11.3130 c3         1 RLO       0.173600
     12 C07         27.3300    58.3920    -7.6630 c3         1 RLO      -0.073200
     13 O08         30.1510    55.8920    -6.7440 oh         1 RLO      -0.704000
     14 O09         31.8300    58.0930    -6.9450 oh         1 RLO      -0.675000
     15 O10         31.6210    58.6710    -9.7510 oh         1 RLO      -0.726000
     16 O11         28.4670    56.7400    -9.1060 os         1 RLO      -0.426000
     17 O12         29.8980    55.7930   -11.4520 oh         1 RLO      -0.715000
     18 C14         22.7160    58.1270   -11.4440 ca         1 RLO      -0.083000
     19 C16         23.1290    60.4670   -11.9250 ca         1 RLO      -0.083000
     20 C18         24.6090    59.2670   -10.3940 ca         1 RLO      -0.047800
     21 C19         21.9500    56.9620   -11.6330 ca         1 RLO      -0.058000
     22 C23         26.1040    58.3610    -8.5580 c2         1 RLO      -0.189200
     23 N24         21.2740    59.3640   -12.9500 nb         1 RLO      -0.660000
     24 H1          24.1030    57.1760   -10.0940 ha         1 RLO       0.118000
     25 H2          24.8320    61.3530   -10.9400 ha         1 RLO       0.115000
     26 H3          20.2220    56.1510   -12.6660 ha         1 RLO       0.124000
     27 H4          19.6860    58.3180   -13.7980 h4         1 RLO       0.019100
     28 H7          27.5960    56.2870    -7.2850 h1         1 RLO       0.095700
     29 H8          29.3080    57.6040    -5.9120 h1         1 RLO       0.035700
     30 H9          30.1520    59.1500    -7.5890 h1         1 RLO       0.047700
     31 H10         31.1720    56.7190    -9.1540 h1         1 RLO       0.087700
     32 H11         28.8870    58.6520    -9.8480 h1         1 RLO       0.042700
     33 H12         30.1070    57.8380   -11.8590 h1         1 RLO       0.038700
     34 H13         28.4430    57.2620   -11.7610 h1         1 RLO       0.038700
     35 H14         27.9320    59.2770    -7.8960 hc         1 RLO       0.051200
     36 H15         27.0010    58.5430    -6.6280 hc         1 RLO       0.051200
     37 H16         31.1130    56.0950    -6.6440 ho         1 RLO       0.517000
     38 H17         31.7540    58.6630    -6.1450 ho         1 RLO       0.449000
     39 H18         32.3300    58.8270    -9.0810 ho         1 RLO       0.517000
     40 H19         29.8530    55.5720   -12.4120 ho         1 RLO       0.500000
     41 H20         22.8640    61.3870   -12.4380 ha         1 RLO       0.132000
     42 H21         22.2050    56.0320   -11.1280 ha         1 RLO       0.120000
     43 H5          26.4680    60.1370    -9.6490 ha         1 RLO       0.169000
     44 H6          25.4510    57.5080    -8.3750 ha         1 RLO       0.177000
     45 C22         25.8050    59.2820    -9.5020 ce         1 RLO      -0.165200
@<TRIPOS>BOND
     1     1    18 ar  
     2     1    20 ar  
     3     1    24 1   
     4     2    18 ar  
     5     2    19 ar  
     6     2    23 ar  
     7     3    19 ar  
     8     3    20 ar  
     9     3    25 1   
    10     4     5 ar  
    11     4    21 ar  
    12     4    26 1   
    13     5    23 ar  
    14     5    27 1   
    15     6     7 1   
    16     6    12 1   
    17     6    16 1   
    18     6    28 1   
    19     7     8 1   
    20     7    13 1   
    21     7    29 1   
    22     8     9 1   
    23     8    14 1   
    24     8    30 1   
    25     9    10 1   
    26     9    15 1   
    27     9    31 1   
    28    10    11 1   
    29    10    16 1   
    30    10    32 1   
    31    11    17 1   
    32    11    33 1   
    33    11    34 1   
    34    12    22 1   
    35    12    35 1   
    36    12    36 1   
    37    13    37 1   
    38    14    38 1   
    39    15    39 1   
    40    17    40 1   
    41    18    21 ar  
    42    19    41 1   
    43    20    45 1   
    44    21    42 1   
    45    22    44 1   
    46    22    45 2   
    47    43    45 1   
@<TRIPOS>SUBSTRUCTURE
     1 RLO         1 TEMP              0 ****  ****    0 ROOT
