@<TRIPOS>MOLECULE
RLP
   44    45     1     0     0
SMALL
abcg2


@<TRIPOS>ATOM
      1 O19         -2.6820     1.5580    -6.1260 o          1 RLP      -0.729000
      2 C18         -2.5570     0.5480    -5.4050 c          1 RLP       0.720000
      3 O18         -3.1350    -0.5460    -5.5470 o          1 RLP      -0.729000
      4 C17         -1.5850     0.6930    -4.2170 c3         1 RLP      -0.219400
      5 C16         -1.4060    -0.5720    -3.3790 c3         1 RLP      -0.109700
      6 C7          -0.3980    -0.3840    -2.2850 cc         1 RLP       0.187300
      7 C8          -0.7440     0.2300    -1.0660 cd         1 RLP       0.197100
      8 O8          -1.9560     0.6350    -0.7800 oh         1 RLP      -0.538100
      9 N9           0.1810     0.4600    -0.1240 na         1 RLP       0.010000
     10 C10          1.4910     0.0710    -0.3230 cd         1 RLP       0.125000
     11 C5           1.7650    -0.5390    -1.5640 cd         1 RLP       0.113500
     12 N6           0.8490    -0.7470    -2.4870 nc         1 RLP      -0.486000
     13 C4           3.1460    -0.9510    -1.8150 c          1 RLP       0.498500
     14 O4           3.5340    -1.4830    -2.8370 o          1 RLP      -0.514000
     15 N3           3.9820    -0.6720    -0.7670 ns         1 RLP      -0.499500
     16 C2           3.6400    -0.0710     0.4440 c          1 RLP       0.737400
     17 O2           4.5100     0.1000     1.2820 o          1 RLP      -0.560000
     18 N1           2.3500     0.2960     0.6370 nc         1 RLP      -0.505400
     19 C11         -0.1780     1.0880     1.1550 c3         1 RLP       0.029600
     20 C12         -0.4590     0.0090     2.2120 c3         1 RLP       0.128300
     21 O12         -1.3280    -0.9790     1.7150 oh         1 RLP      -0.701000
     22 C13         -1.0160     0.6600     3.4930 c3         1 RLP       0.104300
     23 O13         -0.4850     1.9460     3.7200 oh         1 RLP      -0.715000
     24 C14         -0.8240    -0.2140     4.7490 c3         1 RLP       0.141300
     25 O14         -0.9550    -1.5920     4.5110 oh         1 RLP      -0.683000
     26 C15         -1.7530     0.2640     5.8540 c3         1 RLP       0.128600
     27 O15         -1.4310    -0.4060     7.0490 oh         1 RLP      -0.705000
     28 H171        -1.9360     1.5250    -3.5960 hc         1 RLP       0.024200
     29 H172        -0.6100     1.0140    -4.5970 hc         1 RLP       0.024200
     30 H161        -1.0500    -1.3860    -4.0100 hc         1 RLP       0.068200
     31 H162        -2.3700    -0.9140    -2.9890 hc         1 RLP       0.068200
     32 HO8         -2.5910     0.3920    -1.4670 ho         1 RLP       0.540000
     33 HN3          4.9540    -0.9310    -0.8790 hn         1 RLP       0.326500
     34 H111        -1.0320     1.7420     0.9960 h1         1 RLP       0.093200
     35 H112         0.6670     1.7050     1.4420 h1         1 RLP       0.093200
     36 H121         0.4830    -0.5010     2.4300 h1         1 RLP       0.118700
     37 H12O        -2.2050    -0.5970     1.5970 ho         1 RLP       0.498000
     38 H131        -2.0890     0.8230     3.3260 h1         1 RLP       0.062700
     39 H13O         0.4340     1.8640     3.9980 ho         1 RLP       0.516000
     40 H141         0.2150    -0.0820     5.0790 h1         1 RLP       0.087700
     41 H14O        -1.8290    -1.7700     4.1460 ho         1 RLP       0.502000
     42 H151        -2.7910     0.0680     5.5460 h1         1 RLP       0.024200
     43 H152        -1.6530     1.3510     5.9580 h1         1 RLP       0.024200
     44 H15O        -2.0230    -0.0900     7.7370 ho         1 RLP       0.500000
@<TRIPOS>BOND
     1     1     2 1   
     2     2     3 1   
     3     2     4 1   
     4     4     5 1   
     5     4    28 1   
     6     4    29 1   
     7     5     6 1   
     8     5    30 1   
     9     5    31 1   
    10     6     7 2   
    11     6    12 1   
    12     7     8 1   
    13     7     9 1   
    14     8    32 1   
    15     9    10 1   
    16     9    19 1   
    17    10    11 1   
    18    10    18 2   
    19    11    12 2   
    20    11    13 1   
    21    13    14 2   
    22    13    15 1   
    23    15    16 1   
    24    15    33 1   
    25    16    17 2   
    26    16    18 1   
    27    19    20 1   
    28    19    34 1   
    29    19    35 1   
    30    20    21 1   
    31    20    22 1   
    32    20    36 1   
    33    21    37 1   
    34    22    23 1   
    35    22    24 1   
    36    22    38 1   
    37    23    39 1   
    38    24    25 1   
    39    24    26 1   
    40    24    40 1   
    41    25    41 1   
    42    26    27 1   
    43    26    42 1   
    44    26    43 1   
    45    27    44 1   
@<TRIPOS>SUBSTRUCTURE
     1 RLP         1 TEMP              0 ****  ****    0 ROOT
