@<TRIPOS>MOLECULE
RLP
   44    45     1     0     0
SMALL
No Charge or Current Charge


@<TRIPOS>ATOM
      1 O19         -2.2120    -0.1780    -6.5090 o          1 RLP      -0.729000
      2 C18         -2.6760     0.1550    -5.4300 c          1 RLP       0.720000
      3 O18         -3.8660     0.1100    -5.1570 o          1 RLP      -0.729000
      4 C17         -1.7000     0.5810    -4.3190 c3         1 RLP      -0.219400
      5 C16         -1.2470    -0.6540    -3.4920 c3         1 RLP      -0.109700
      6 C7          -0.3120    -0.3060    -2.3510 cc         1 RLP       0.187300
      7 C8          -0.7760     0.1600    -1.1060 cd         1 RLP       0.197100
      8 O8          -2.0980     0.3180    -0.8100 oh         1 RLP      -0.538100
      9 N9           0.1510     0.4940    -0.0930 na         1 RLP       0.010000
     10 C10          1.4880     0.2100    -0.4060 cd         1 RLP       0.125000
     11 C5           1.9010    -0.2770    -1.6850 cd         1 RLP       0.113500
     12 N6           1.0210    -0.5130    -2.6530 nc         1 RLP      -0.486000
     13 C4           3.3600    -0.5250    -1.9180 c          1 RLP       0.498500
     14 O4           3.8610    -0.9340    -2.9570 o          1 RLP      -0.514000
     15 N3           4.1330    -0.2500    -0.8260 ns         1 RLP      -0.499500
     16 C2           3.7280     0.2030     0.3890 c          1 RLP       0.737400
     17 O2           4.5340     0.4010     1.2790 o          1 RLP      -0.560000
     18 N1           2.3770     0.4240     0.5590 nc         1 RLP      -0.505400
     19 C11         -0.2790     1.0920     1.2050 c3         1 RLP       0.029600
     20 C12         -0.6530     0.0360     2.2810 c3         1 RLP       0.128300
     21 O12         -1.8450    -0.6660     1.8580 oh         1 RLP      -0.701000
     22 C13         -0.8790     0.6660     3.7020 c3         1 RLP       0.104300
     23 O13          0.2910     1.4160     4.0990 oh         1 RLP      -0.715000
     24 C14         -1.2490    -0.3800     4.8150 c3         1 RLP       0.141300
     25 O14         -2.4060    -1.1320     4.3980 oh         1 RLP      -0.683000
     26 C15         -1.5180     0.2830     6.2050 c3         1 RLP       0.128600
     27 O15         -1.7160    -0.7040     7.2360 oh         1 RLP      -0.705000
     28 H171        -2.2000     1.2570    -3.6150 hc         1 RLP       0.024200
     29 H172        -0.7850     1.0010    -4.7540 hc         1 RLP       0.024200
     30 H161        -0.7580    -1.3640    -4.1720 hc         1 RLP       0.068200
     31 H162        -2.1260    -1.1900    -3.1120 hc         1 RLP       0.068200
     32 HO8         -2.6070     0.2350    -1.6480 ho         1 RLP       0.540000
     33 HN3          5.1240    -0.4010    -0.9250 hn         1 RLP       0.326500
     34 H111        -1.1320     1.7600     1.0360 h1         1 RLP       0.093200
     35 H112         0.5250     1.7340     1.5830 h1         1 RLP       0.093200
     36 H121         0.1890    -0.6700     2.3590 h1         1 RLP       0.118700
     37 H12O        -2.0350    -0.3940     0.9220 ho         1 RLP       0.498000
     38 H131        -1.7280     1.3590     3.6160 h1         1 RLP       0.062700
     39 H13O         1.0400     0.7880     4.2260 ho         1 RLP       0.516000
     40 H141        -0.3920    -1.0600     4.9310 h1         1 RLP       0.087700
     41 H14O        -2.3660    -1.1110     3.4000 ho         1 RLP       0.502000
     42 H151        -2.3990     0.9340     6.1250 h1         1 RLP       0.024200
     43 H152        -0.6660     0.9230     6.4720 h1         1 RLP       0.024200
     44 H15O        -1.9660    -0.2180     8.0570 ho         1 RLP       0.500000
@<TRIPOS>BOND
     1     1     2 1   
     2     2     3 1   
     3     2     4 1   
     4     4     5 1   
     5     4    28 1   
     6     4    29 1   
     7     5     6 1   
     8     5    30 1   
     9     5    31 1   
    10     6     7 2   
    11     6    12 1   
    12     7     8 1   
    13     7     9 1   
    14     8    32 1   
    15     9    10 1   
    16     9    19 1   
    17    10    11 1   
    18    10    18 2   
    19    11    12 2   
    20    11    13 1   
    21    13    14 2   
    22    13    15 1   
    23    15    16 1   
    24    15    33 1   
    25    16    17 2   
    26    16    18 1   
    27    19    20 1   
    28    19    34 1   
    29    19    35 1   
    30    20    21 1   
    31    20    22 1   
    32    20    36 1   
    33    21    37 1   
    34    22    23 1   
    35    22    24 1   
    36    22    38 1   
    37    23    39 1   
    38    24    25 1   
    39    24    26 1   
    40    24    40 1   
    41    25    41 1   
    42    26    27 1   
    43    26    42 1   
    44    26    43 1   
    45    27    44 1   
@<TRIPOS>SUBSTRUCTURE
     1 RLP         1 TEMP              0 ****  ****    0 ROOT
