@<TRIPOS>MOLECULE
RLR
   51    55     1     0     0
SMALL
abcg2


@<TRIPOS>ATOM
      1 N1         -20.2190     5.0590    26.9880 ns         1 RLR      -0.175000
      2 N3         -20.7300     9.7040    29.8700 ns         1 RLR      -0.502900
      3 C4         -22.9430     6.5670    30.6860 c6         1 RLR       0.203100
      4 C5         -22.7540     6.1820    28.3420 c6         1 RLR       0.171800
      5 C6         -22.1040     4.8010    28.5020 c6         1 RLR      -0.086400
      6 C7         -20.5870     4.9030    28.2910 c          1 RLR       0.610100
      7 C8         -18.8890     5.2870    26.5650 ca         1 RLR      -0.080000
      8 C10        -16.2660     5.6550    25.8800 ca         1 RLR       0.354900
      9 C13        -17.7270     8.7840    24.4940 ca         1 RLR      -0.114000
     10 C15        -19.4950     7.4730    25.5080 ca         1 RLR      -0.113000
     11 C17        -22.4210     4.2290    29.8580 ca         1 RLR      -0.056300
     12 C20        -21.9060     9.0470    27.9880 c5         1 RLR      -0.094400
     13 C21        -20.4890     9.3740    28.4720 c5         1 RLR       0.108000
     14 C22        -21.9080     9.2750    30.3540 c          1 RLR       0.566000
     15 O1         -22.3410     9.4720    31.4860 o          1 RLR      -0.561000
     16 C19        -22.6010     8.4730    29.2270 c5         1 RLR       0.093500
     17 N          -22.3310     7.0430    29.4440 n3         1 RLR      -0.706600
     18 C3         -22.7920     5.0820    30.8950 ca         1 RLR      -0.052300
     19 C2         -23.0620     4.5420    32.1540 ca         1 RLR      -0.099000
     20 C1         -22.9670     3.1790    32.3900 ca         1 RLR      -0.091000
     21 C18        -22.3210     2.8570    30.0830 ca         1 RLR      -0.086000
     22 C          -22.5930     2.3480    31.3400 ca         1 RLR       0.124000
     23 CL         -22.4670     0.6200    31.6160 cl         1 RLR      -0.213000
     24 O          -19.7800     4.8700    29.2090 o          1 RLR      -0.546100
     25 C16        -18.5590     6.4730    25.8570 ca         1 RLR      -0.022000
     26 C14        -19.0840     8.6010    24.8440 ca         1 RLR      -0.092000
     27 C12        -16.7990     7.8290    24.8190 ca         1 RLR      -0.075000
     28 C11        -17.1920     6.6570    25.5060 ca         1 RLR      -0.091000
     29 N2         -16.5960     4.5600    26.5270 nb         1 RLR      -0.646000
     30 C9         -17.8990     4.3820    26.8580 ca         1 RLR       0.339900
     31 H1         -20.9500     5.1220    26.2940 hn         1 RLR       0.150000
     32 H3         -22.5030     7.0920    31.5300 h1         1 RLR       0.062200
     33 H4         -24.0210     6.8120    30.6950 h1         1 RLR       0.062200
     34 H5         -22.4570     6.6120    27.3920 h1         1 RLR       0.038700
     35 H6         -23.8490     6.0620    28.3220 h1         1 RLR       0.038700
     36 H7         -22.5040     4.1450    27.7250 hc         1 RLR       0.066700
     37 H8         -15.2190     5.7860    25.6230 h4         1 RLR       0.022100
     38 H9         -17.4260     9.6830    23.9720 ha         1 RLR       0.119000
     39 H10        -20.5350     7.3430    25.7670 ha         1 RLR       0.109000
     40 H11        -22.4160     9.9720    27.7130 hc         1 RLR       0.055700
     41 H12        -21.9130     8.3970    27.1210 hc         1 RLR       0.055700
     42 H13        -19.8190     8.5160    28.3780 h1         1 RLR       0.056200
     43 H14        -20.0480    10.2170    27.9420 h1         1 RLR       0.056200
     44 H15        -23.6800     8.6800    29.2360 h1         1 RLR       0.058700
     45 H17        -23.3500     5.2000    32.9660 ha         1 RLR       0.123000
     46 H18        -23.1730     2.7690    33.3680 ha         1 RLR       0.132000
     47 H19        -22.0340     2.1950    29.2760 ha         1 RLR       0.127000
     48 H20        -19.8070     9.3660    24.5880 ha         1 RLR       0.113000
     49 H21        -15.7560     7.9550    24.5540 ha         1 RLR       0.120000
     50 H22        -18.1430     3.4710    27.3880 h4         1 RLR       0.036100
     51 H2         -20.0620    10.1880    30.4520 hn         1 RLR       0.334500
@<TRIPOS>BOND
     1     1     6 1   
     2     1     7 1   
     3     1    31 1   
     4     2    13 1   
     5     2    14 1   
     6     2    51 1   
     7     3    17 1   
     8     3    18 1   
     9     3    32 1   
    10     3    33 1   
    11     4     5 1   
    12     4    17 1   
    13     4    34 1   
    14     4    35 1   
    15     5     6 1   
    16     5    11 1   
    17     5    36 1   
    18     6    24 2   
    19     7    25 ar  
    20     7    30 ar  
    21     8    28 ar  
    22     8    29 ar  
    23     8    37 1   
    24     9    26 ar  
    25     9    27 ar  
    26     9    38 1   
    27    10    25 ar  
    28    10    26 ar  
    29    10    39 1   
    30    11    18 ar  
    31    11    21 ar  
    32    12    13 1   
    33    12    16 1   
    34    12    40 1   
    35    12    41 1   
    36    13    42 1   
    37    13    43 1   
    38    14    15 2   
    39    14    16 1   
    40    16    17 1   
    41    16    44 1   
    42    18    19 ar  
    43    19    20 ar  
    44    19    45 1   
    45    20    22 ar  
    46    20    46 1   
    47    21    22 ar  
    48    21    47 1   
    49    22    23 1   
    50    25    28 ar  
    51    26    48 1   
    52    27    28 ar  
    53    27    49 1   
    54    29    30 ar  
    55    30    50 1   
@<TRIPOS>SUBSTRUCTURE
     1 RLR         1 TEMP              0 ****  ****    0 ROOT
