@<TRIPOS>MOLECULE
RLR
   51    55     1     0     0
SMALL
No Charge or Current Charge


@<TRIPOS>ATOM
      1 N1         -20.0660     5.4050    27.2000 ns         1 RLR      -0.175000
      2 N3         -20.9390     9.9400    30.4820 ns         1 RLR      -0.502900
      3 C4         -22.9650     6.5190    30.7470 c6         1 RLR       0.203100
      4 C5         -22.6640     6.2090    28.3480 c6         1 RLR       0.171800
      5 C6         -22.0720     4.7920    28.5240 c6         1 RLR      -0.086400
      6 C7         -20.5320     4.8090    28.3670 c          1 RLR       0.610100
      7 C8         -18.7460     5.6280    26.7050 ca         1 RLR      -0.080000
      8 C10        -16.1690     6.0290    25.7750 ca         1 RLR       0.354900
      9 C13        -18.0280     8.3580    23.5410 ca         1 RLR      -0.114000
     10 C15        -19.6010     7.2620    25.0430 ca         1 RLR      -0.113000
     11 C17        -22.5140     4.1580    29.8470 ca         1 RLR      -0.056300
     12 C20        -21.2670     8.9900    28.3840 c5         1 RLR      -0.094400
     13 C21        -20.1500     9.3610    29.3990 c5         1 RLR       0.108000
     14 C22        -22.2040     9.4270    30.5830 c          1 RLR       0.566000
     15 O1         -22.9750     9.7010    31.4930 o          1 RLR      -0.561000
     16 C19        -22.4360     8.5420    29.3190 c5         1 RLR       0.093500
     17 N          -22.2930     7.0470    29.5180 n3         1 RLR      -0.706600
     18 C3         -22.9180     4.9900    30.9140 ca         1 RLR      -0.052300
     19 C2         -23.3100     4.4110    32.1360 ca         1 RLR      -0.099000
     20 C1         -23.2960     3.0140    32.2960 ca         1 RLR      -0.091000
     21 C18        -22.5040     2.7590    30.0090 ca         1 RLR      -0.086000
     22 C          -22.8940     2.1910    31.2320 ca         1 RLR       0.124000
     23 Cl         -22.8780     0.4430    31.4320 cl         1 RLR      -0.213000
     24 O          -19.7860     4.3420    29.2210 o          1 RLR      -0.546100
     25 C16        -18.5410     6.5420    25.6430 ca         1 RLR      -0.022000
     26 C14        -19.3420     8.1640    23.9970 ca         1 RLR      -0.092000
     27 C12        -16.9690     7.6490    24.1290 ca         1 RLR      -0.075000
     28 C11        -17.2240     6.7440    25.1770 ca         1 RLR      -0.091000
     29 N2         -16.3520     5.1460    26.7810 nb         1 RLR      -0.646000
     30 C9         -17.6140     4.9560    27.2310 ca         1 RLR       0.339900
     31 H1         -20.7960     5.7580    26.5950 hn         1 RLR       0.150000
     32 H3         -22.5120     6.9670    31.6430 h1         1 RLR       0.062200
     33 H4         -24.0240     6.8200    30.7480 h1         1 RLR       0.062200
     34 H5         -22.3240     6.6450    27.4000 h1         1 RLR       0.038700
     35 H6         -23.7590     6.1370    28.2730 h1         1 RLR       0.038700
     36 H7         -22.4590     4.2390    27.6580 hc         1 RLR       0.066700
     37 H8         -15.1420     6.1630    25.4350 h4         1 RLR       0.022100
     38 H9         -17.8310     9.0580    22.7310 ha         1 RLR       0.119000
     39 H10        -20.6280     7.1350    25.3730 ha         1 RLR       0.109000
     40 H11        -21.5630     9.8770    27.8120 hc         1 RLR       0.055700
     41 H12        -20.9280     8.2470    27.6570 hc         1 RLR       0.055700
     42 H13        -19.6060     8.4670    29.7350 h1         1 RLR       0.056200
     43 H14        -19.4240    10.0670    28.9720 h1         1 RLR       0.056200
     44 H15        -23.4160     8.7980    28.8940 h1         1 RLR       0.058700
     45 H17        -23.6290     5.0430    32.9620 ha         1 RLR       0.123000
     46 H18        -23.5990     2.5700    33.2410 ha         1 RLR       0.132000
     47 H19        -22.1910     2.1140    29.1930 ha         1 RLR       0.127000
     48 H20        -20.1610     8.7150    23.5410 ha         1 RLR       0.113000
     49 H21        -15.9530     7.8040    23.7700 ha         1 RLR       0.120000
     50 H22        -17.7040     4.2210    28.0270 h4         1 RLR       0.036100
     51 H2         -20.5910    10.5400    31.2210 hn         1 RLR       0.334500
@<TRIPOS>BOND
     1     1     6 1   
     2     1     7 1   
     3     1    31 1   
     4     2    13 1   
     5     2    14 1   
     6     2    51 1   
     7     3    17 1   
     8     3    18 1   
     9     3    32 1   
    10     3    33 1   
    11     4     5 1   
    12     4    17 1   
    13     4    34 1   
    14     4    35 1   
    15     5     6 1   
    16     5    11 1   
    17     5    36 1   
    18     6    24 2   
    19     7    25 ar  
    20     7    30 ar  
    21     8    28 ar  
    22     8    29 ar  
    23     8    37 1   
    24     9    26 ar  
    25     9    27 ar  
    26     9    38 1   
    27    10    25 ar  
    28    10    26 ar  
    29    10    39 1   
    30    11    18 ar  
    31    11    21 ar  
    32    12    13 1   
    33    12    16 1   
    34    12    40 1   
    35    12    41 1   
    36    13    42 1   
    37    13    43 1   
    38    14    15 2   
    39    14    16 1   
    40    16    17 1   
    41    16    44 1   
    42    18    19 ar  
    43    19    20 ar  
    44    19    45 1   
    45    20    22 ar  
    46    20    46 1   
    47    21    22 ar  
    48    21    47 1   
    49    22    23 1   
    50    25    28 ar  
    51    26    48 1   
    52    27    28 ar  
    53    27    49 1   
    54    29    30 ar  
    55    30    50 1   
@<TRIPOS>SUBSTRUCTURE
     1 RLR         1 TEMP              0 ****  ****    0 ROOT
