@<TRIPOS>MOLECULE
RLS
   44    46     1     0     0
SMALL
abcg2


@<TRIPOS>ATOM
      1 C01         -5.5600     2.5760    -0.1940 c3         1 RLS       0.094300
      2 C03         -5.2990     0.1470     0.1460 c          1 RLS       0.563000
      3 C04         -4.1590    -0.8480     0.0960 c5         1 RLS      -0.163400
      4 C05         -3.0830    -0.1430    -0.7340 c5         1 RLS      -0.042400
      5 C06         -1.6670    -0.5220    -0.4050 ca         1 RLS      -0.023300
      6 C07         -0.8560    -1.1100    -1.3700 ca         1 RLS      -0.126500
      7 C08          0.4560    -1.4610    -1.0900 ca         1 RLS      -0.014500
      8 C09          0.9650    -1.2190     0.1780 ca         1 RLS      -0.303500
      9 C12          3.2260     0.9780     1.0260 c6         1 RLS       0.190300
     10 C13          4.3490     1.9940     0.8830 c6         1 RLS      -0.073900
     11 C14          4.5360     2.4070    -0.5700 c6         1 RLS      -0.075400
     12 C15          4.7370     1.1750    -1.4430 c6         1 RLS      -0.073900
     13 C16          3.6020     0.1790    -1.2570 c6         1 RLS       0.190300
     14 C19          0.1710    -0.6430     1.1640 ca         1 RLS      -0.014500
     15 C20         -1.1370    -0.3000     0.8660 ca         1 RLS      -0.126500
     16 C21         -3.4010     1.3440    -0.5170 c5         1 RLS       0.102000
     17 N02         -4.8200     1.3440    -0.2430 n          1 RLS      -0.418800
     18 N11          3.4960    -0.1780     0.1630 n3         1 RLS      -0.708500
     19 O17          2.8060    -1.7900     1.9480 o          1 RLS      -0.533000
     20 O18          3.1190    -2.5870    -0.4100 o          1 RLS      -0.533000
     21 O22         -6.4430    -0.0860     0.5010 o          1 RLS      -0.544000
     22 S10          2.6670    -1.5640     0.5190 sy         1 RLS       1.148600
     23 H1          -6.6050     2.3700     0.0210 h1         1 RLS       0.043700
     24 H2          -5.1670     3.2370     0.5810 h1         1 RLS       0.043700
     25 H3          -5.4970     3.0980    -1.1500 h1         1 RLS       0.043700
     26 H4          -3.8300    -1.0420     1.1220 hc         1 RLS       0.082700
     27 H5          -4.4750    -1.8000    -0.3280 hc         1 RLS       0.082700
     28 H6          -3.2640    -0.3720    -1.7860 hc         1 RLS       0.069700
     29 H7          -1.2510    -1.3000    -2.3600 ha         1 RLS       0.119500
     30 H8           1.0610    -1.9250    -1.8580 ha         1 RLS       0.137000
     31 H10          2.2680     1.4410     0.7510 h1         1 RLS       0.052450
     32 H11          4.1110     2.8580     1.5070 hc         1 RLS       0.053700
     33 H12          5.2740     1.5600     1.2700 hc         1 RLS       0.053700
     34 H13          3.6520     2.9550    -0.9110 hc         1 RLS       0.042700
     35 H14          5.3850     3.0860    -0.6670 hc         1 RLS       0.042700
     36 H15          4.7830     1.4500    -2.4980 hc         1 RLS       0.053700
     37 H16          5.6840     0.6900    -1.1930 hc         1 RLS       0.053700
     38 H17          2.6610     0.6220    -1.6110 h1         1 RLS       0.052450
     39 H18          3.7950    -0.7160    -1.8450 h1         1 RLS       0.052450
     40 H19          0.5570    -0.4630     2.1580 ha         1 RLS       0.137000
     41 H20         -1.7440     0.1480     1.6440 ha         1 RLS       0.119500
     42 H21         -2.8430     1.7720     0.3240 h1         1 RLS       0.048200
     43 H22         -3.1710     1.9420    -1.4010 h1         1 RLS       0.048200
     44 H9           3.1540     0.6510     2.0610 h1         1 RLS       0.052450
@<TRIPOS>BOND
     1     1    17 1   
     2     1    23 1   
     3     1    24 1   
     4     1    25 1   
     5     2     3 1   
     6     2    17 1   
     7     2    21 2   
     8     3     4 1   
     9     3    26 1   
    10     3    27 1   
    11     4     5 1   
    12     4    16 1   
    13     4    28 1   
    14     5     6 ar  
    15     5    15 ar  
    16     6     7 ar  
    17     6    29 1   
    18     7     8 ar  
    19     7    30 1   
    20     8    14 ar  
    21     8    22 1   
    22     9    10 1   
    23     9    18 1   
    24     9    31 1   
    25     9    44 1   
    26    10    11 1   
    27    10    32 1   
    28    10    33 1   
    29    11    12 1   
    30    11    34 1   
    31    11    35 1   
    32    12    13 1   
    33    12    36 1   
    34    12    37 1   
    35    13    18 1   
    36    13    38 1   
    37    13    39 1   
    38    14    15 ar  
    39    14    40 1   
    40    15    41 1   
    41    16    17 1   
    42    16    42 1   
    43    16    43 1   
    44    18    22 1   
    45    19    22 2   
    46    20    22 2   
@<TRIPOS>SUBSTRUCTURE
     1 RLS         1 TEMP              0 ****  ****    0 ROOT
