@<TRIPOS>MOLECULE
RLS
   44    46     1     0     0
SMALL
No Charge or Current Charge


@<TRIPOS>ATOM
      1 C01         -5.6630     2.5800    -0.2510 c3         1 RLS       0.094300
      2 C03         -5.3070     0.1290     0.0310 c          1 RLS       0.563000
      3 C04         -4.0900    -0.7840     0.1250 c5         1 RLS      -0.163400
      4 C05         -3.0640    -0.0400    -0.7780 c5         1 RLS      -0.042400
      5 C06         -1.6330    -0.4540    -0.4080 ca         1 RLS      -0.023300
      6 C07         -0.8120    -1.0290    -1.3980 ca         1 RLS      -0.126500
      7 C08          0.5060    -1.4230    -1.1100 ca         1 RLS      -0.014500
      8 C09          1.0290    -1.2410     0.1850 ca         1 RLS      -0.303500
      9 C12          3.3150     0.8320     1.1010 c6         1 RLS       0.190300
     10 C13          4.3190     1.9910     0.8910 c6         1 RLS      -0.073900
     11 C14          4.3510     2.4370    -0.5880 c6         1 RLS      -0.075400
     12 C15          4.6190     1.2180    -1.4990 c6         1 RLS      -0.073900
     13 C16          3.6060     0.0810    -1.2180 c6         1 RLS       0.190300
     14 C19          0.2170    -0.6750     1.1870 ca         1 RLS      -0.014500
     15 C20         -1.0990    -0.2850     0.8910 ca         1 RLS      -0.126500
     16 C21         -3.3210     1.4500    -0.3710 c5         1 RLS       0.102000
     17 N02         -4.7740     1.4140    -0.1000 n          1 RLS      -0.418800
     18 N11          3.6210    -0.3240     0.2140 n3         1 RLS      -0.708500
     19 O17          2.8650    -1.9680     2.0020 o          1 RLS      -0.533000
     20 O18          3.1680    -2.7490    -0.4050 o          1 RLS      -0.533000
     21 O22         -6.4840    -0.1610    -0.1320 o          1 RLS      -0.544000
     22 S10          2.7230    -1.7350     0.5590 sy         1 RLS       1.148600
     23 H1          -6.4070     2.5890     0.5560 h1         1 RLS       0.043700
     24 H2          -5.0760     3.5060    -0.2040 h1         1 RLS       0.043700
     25 H3          -6.1790     2.5300    -1.2190 h1         1 RLS       0.043700
     26 H4          -3.7540    -0.7680     1.1670 hc         1 RLS       0.082700
     27 H5          -4.3260    -1.8100    -0.1740 hc         1 RLS       0.082700
     28 H6          -3.2950    -0.1960    -1.8390 hc         1 RLS       0.069700
     29 H7          -1.1960    -1.1750    -2.4040 ha         1 RLS       0.119500
     30 H8           1.1150    -1.8640    -1.8970 ha         1 RLS       0.137000
     31 H10          2.2980     1.2050     0.9110 h1         1 RLS       0.052450
     32 H11          4.0490     2.8400     1.5330 hc         1 RLS       0.053700
     33 H12          5.3210     1.6670     1.2030 hc         1 RLS       0.053700
     34 H13          3.3920     2.9000    -0.8590 hc         1 RLS       0.042700
     35 H14          5.1260     3.2010    -0.7390 hc         1 RLS       0.042700
     36 H15          4.5600     1.5160    -2.5540 hc         1 RLS       0.053700
     37 H16          5.6390     0.8460    -1.3330 hc         1 RLS       0.053700
     38 H17          2.6010     0.4200    -1.5120 h1         1 RLS       0.052450
     39 H18          3.8630    -0.7680    -1.8670 h1         1 RLS       0.052450
     40 H19          0.6010    -0.5320     2.1960 ha         1 RLS       0.137000
     41 H20         -1.7010     0.1510     1.6840 ha         1 RLS       0.119500
     42 H21         -2.7760     1.7540     0.5310 h1         1 RLS       0.048200
     43 H22         -3.0650     2.1450    -1.1820 h1         1 RLS       0.048200
     44 H9           3.3590     0.5360     2.1590 h1         1 RLS       0.052450
@<TRIPOS>BOND
     1     1    17 1   
     2     1    23 1   
     3     1    24 1   
     4     1    25 1   
     5     2     3 1   
     6     2    17 1   
     7     2    21 2   
     8     3     4 1   
     9     3    26 1   
    10     3    27 1   
    11     4     5 1   
    12     4    16 1   
    13     4    28 1   
    14     5     6 ar  
    15     5    15 ar  
    16     6     7 ar  
    17     6    29 1   
    18     7     8 ar  
    19     7    30 1   
    20     8    14 ar  
    21     8    22 1   
    22     9    10 1   
    23     9    18 1   
    24     9    31 1   
    25     9    44 1   
    26    10    11 1   
    27    10    32 1   
    28    10    33 1   
    29    11    12 1   
    30    11    34 1   
    31    11    35 1   
    32    12    13 1   
    33    12    36 1   
    34    12    37 1   
    35    13    18 1   
    36    13    38 1   
    37    13    39 1   
    38    14    15 ar  
    39    14    40 1   
    40    15    41 1   
    41    16    17 1   
    42    16    42 1   
    43    16    43 1   
    44    18    22 1   
    45    19    22 2   
    46    20    22 2   
@<TRIPOS>SUBSTRUCTURE
     1 RLS         1 TEMP              0 ****  ****    0 ROOT
