@<TRIPOS>MOLECULE
RLT
   53    55     1     0     0
SMALL
abcg2


@<TRIPOS>ATOM
      1 CAA          6.9280     3.4610    -1.3510 c3         1 RLT      -0.126400
      2 CAB          2.8590    -2.6230     0.8800 c3         1 RLT       0.070300
      3 CAC          1.5190    -0.4120     2.7730 c3         1 RLT      -0.102600
      4 CAD          0.1100     0.9700     1.2590 c3         1 RLT      -0.102600
      5 OAE         -3.2770    -3.2560    -1.0910 o          1 RLT      -0.584100
      6 OAF          3.2870     1.8680     1.9060 o          1 RLT      -0.551100
      7 OAG          1.5750    -4.7150    -0.1040 o          1 RLT      -0.553000
      8 CAJ         -4.5900     3.0170    -1.2410 ca         1 RLT      -0.156000
      9 CAK         -5.1290     2.5380     1.0670 ca         1 RLT      -0.156000
     10 CAL         -4.4500     1.6570    -1.4780 ca         1 RLT      -0.068500
     11 CAM         -4.9860     1.1830     0.8080 ca         1 RLT      -0.068500
     12 CAN         -4.4560    -0.7420    -0.7210 c3         1 RLT       0.159300
     13 NAO          5.2620     1.7450    -2.0620 nc         1 RLT      -0.358000
     14 NAP          4.2140     1.1290    -1.4430 nc         1 RLT      -0.351000
     15 NAQ         -0.5720    -1.4070     0.2880 nc         1 RLT      -0.623300
     16 NAR         -3.0890    -1.1110    -0.4140 ns         1 RLT      -0.498900
     17 NAS          2.3360     0.3210     0.5040 ns         1 RLT      -0.497900
     18 OAT          5.1160     2.5100    -0.0320 os         1 RLT      -0.237000
     19 CAV          3.2060     1.2850     0.8440 c          1 RLT       0.549600
     20 CAW          5.7760     2.5560    -1.2000 cd         1 RLT       0.435300
     21 CAX         -4.9280     3.4310     0.0330 ca         1 RLT       0.178000
     22 CAY         -4.6490     0.7260    -0.4630 ca         1 RLT      -0.130300
     23 CAZ         -0.4830    -3.6640    -0.3910 cd         1 RLT       0.061900
     24 CBA          4.1600     1.6050    -0.2530 cd         1 RLT       0.345500
     25 CBB         -1.1760    -2.5060    -0.2390 cc         1 RLT       0.022400
     26 CBC          0.6550    -1.4040     0.6540 cd         1 RLT       0.453900
     27 CBD          0.9150    -3.6910     0.0120 c          1 RLT       0.492200
     28 NBE          1.4440    -2.5240     0.5160 n          1 RLT      -0.292300
     29 CBF          1.1850    -0.1190     1.3020 c3         1 RLT       0.121100
     30 HAA          6.6360     4.4950    -1.1700 hc         1 RLT       0.075367
     31 HAAA         7.7170     3.2040    -0.6440 hc         1 RLT       0.075367
     32 HAAB         7.3230     3.3790    -2.3600 hc         1 RLT       0.075367
     33 HAB          2.9770    -3.2860     1.7330 h1         1 RLT       0.065367
     34 HABA         3.4180    -3.0250     0.0390 h1         1 RLT       0.065367
     35 HABB         3.2670    -1.6530     1.1200 h1         1 RLT       0.065367
     36 HAC          0.6420    -0.8570     3.2420 hc         1 RLT       0.058700
     37 HACA         2.3520    -1.0980     2.9060 hc         1 RLT       0.058700
     38 HACB         1.7500     0.5060     3.3040 hc         1 RLT       0.058700
     39 HAD          0.5090     1.8750     1.7130 hc         1 RLT       0.058700
     40 HADA        -0.1930     1.1980     0.2380 hc         1 RLT       0.058700
     41 HADB        -0.7730     0.6750     1.8230 hc         1 RLT       0.058700
     42 HOAH        -0.2530    -5.4550    -0.8730 ho         1 RLT       0.494000
     43 HAJ         -4.4420     3.7390    -2.0330 ha         1 RLT       0.134500
     44 HAK         -5.3940     2.8920     2.0550 ha         1 RLT       0.134500
     45 HAL         -4.1860     1.3200    -2.4730 ha         1 RLT       0.122000
     46 HAM         -5.1440     0.4740     1.6110 ha         1 RLT       0.122000
     47 HAN         -4.6770    -0.9740    -1.7650 h1         1 RLT       0.058200
     48 HANA        -5.1490    -1.3270    -0.1120 h1         1 RLT       0.058200
     49 HNAR        -2.4640    -0.4250    -0.0160 hn         1 RLT       0.341500
     50 HNAS         2.3330     0.0560    -0.4720 hn         1 RLT       0.344500
     51 OAH         -0.9670    -4.7950    -0.8820 oh         1 RLT      -0.466100
     52 CAU         -2.6110    -2.3430    -0.6240 c          1 RLT       0.628300
     53 FAI         -5.0710     4.7450     0.2710 f          1 RLT      -0.177000
@<TRIPOS>BOND
     1     1    20 1   
     2     1    30 1   
     3     1    31 1   
     4     1    32 1   
     5     2    28 1   
     6     2    33 1   
     7     2    34 1   
     8     2    35 1   
     9     3    29 1   
    10     3    36 1   
    11     3    37 1   
    12     3    38 1   
    13     4    29 1   
    14     4    39 1   
    15     4    40 1   
    16     4    41 1   
    17     5    52 2   
    18     6    19 2   
    19     7    27 2   
    20     8    10 ar  
    21     8    21 ar  
    22     8    43 1   
    23     9    11 ar  
    24     9    21 ar  
    25     9    44 1   
    26    10    22 ar  
    27    10    45 1   
    28    11    22 ar  
    29    11    46 1   
    30    12    16 1   
    31    12    22 1   
    32    12    47 1   
    33    12    48 1   
    34    13    14 1   
    35    13    20 2   
    36    14    24 2   
    37    15    25 1   
    38    15    26 2   
    39    16    49 1   
    40    16    52 1   
    41    17    19 1   
    42    17    29 1   
    43    17    50 1   
    44    18    20 1   
    45    18    24 1   
    46    19    24 1   
    47    21    53 1   
    48    23    25 2   
    49    23    27 1   
    50    23    51 1   
    51    25    52 1   
    52    26    28 1   
    53    26    29 1   
    54    27    28 1   
    55    42    51 1   
@<TRIPOS>SUBSTRUCTURE
     1 RLT         1 TEMP              0 ****  ****    0 ROOT
