@<TRIPOS>MOLECULE
RLT
   53    55     1     0     0
SMALL
No Charge or Current Charge


@<TRIPOS>ATOM
      1 CAA          7.0520     3.4240    -1.5400 c3         1 RLT      -0.126400
      2 CAB          2.8820    -2.6980     1.0390 c3         1 RLT       0.070300
      3 CAC          1.6040    -0.3410     2.8250 c3         1 RLT      -0.102600
      4 CAD          0.1450     1.0400     1.3230 c3         1 RLT      -0.102600
      5 OAE         -3.3130    -3.2840    -1.2720 o          1 RLT      -0.584100
      6 OAF          3.1640     2.0870     1.8820 o          1 RLT      -0.551100
      7 OAG          1.5300    -4.8340    -0.0300 o          1 RLT      -0.553000
      8 CAJ         -4.6330     3.1060    -1.1080 ca         1 RLT      -0.156000
      9 CAK         -5.4050     2.4250     1.0970 ca         1 RLT      -0.156000
     10 CAL         -4.4410     1.7580    -1.4590 ca         1 RLT      -0.068500
     11 CAM         -5.2150     1.0760     0.7490 ca         1 RLT      -0.068500
     12 CAN         -4.5150    -0.7200    -0.9050 c3         1 RLT       0.159300
     13 NAO          5.4530     1.5670    -2.0330 nc         1 RLT      -0.358000
     14 NAP          4.3830     1.0080    -1.3710 nc         1 RLT      -0.351000
     15 NAQ         -0.5880    -1.3770     0.2800 nc         1 RLT      -0.623300
     16 NAR         -3.1640    -1.1390    -0.5580 ns         1 RLT      -0.498900
     17 NAS          2.3620     0.4030     0.5320 ns         1 RLT      -0.497900
     18 OAT          5.1990     2.6700    -0.0820 os         1 RLT      -0.237000
     19 CAV          3.2360     1.4430     0.8420 c          1 RLT       0.549600
     20 CAW          5.8880     2.5290    -1.2360 cd         1 RLT       0.435300
     21 CAX         -5.1150     3.4350     0.1680 ca         1 RLT       0.178000
     22 CAY         -4.7340     0.7370    -0.5320 ca         1 RLT      -0.130300
     23 CAZ         -0.4990    -3.6740    -0.3950 cd         1 RLT       0.061900
     24 CBA          4.2690     1.6880    -0.2290 cd         1 RLT       0.345500
     25 CBB         -1.2100    -2.4920    -0.2860 cc         1 RLT       0.022400
     26 CBC          0.6820    -1.4380     0.7070 cd         1 RLT       0.453900
     27 CBD          0.9060    -3.7800     0.0570 c          1 RLT       0.492200
     28 NBE          1.4630    -2.6050     0.5860 n          1 RLT      -0.292300
     29 CBF          1.2170    -0.1020     1.3320 c3         1 RLT       0.121100
     30 HAA          7.2200     4.1410    -0.7290 hc         1 RLT       0.075367
     31 HAAA         7.9690     2.8380    -1.6690 hc         1 RLT       0.075367
     32 HAAB         6.8770     3.9890    -2.4620 hc         1 RLT       0.075367
     33 HAB          2.9130    -3.0870     2.0640 h1         1 RLT       0.065367
     34 HABA         3.4490    -3.3790     0.3910 h1         1 RLT       0.065367
     35 HABB         3.3990    -1.7360     1.0060 h1         1 RLT       0.065367
     36 HAC          0.8250    -0.9260     3.3310 hc         1 RLT       0.058700
     37 HACA         2.5520    -0.8750     2.9320 hc         1 RLT       0.058700
     38 HACB         1.7040     0.6010     3.3760 hc         1 RLT       0.058700
     39 HAD          0.5300     1.9600     1.7760 hc         1 RLT       0.058700
     40 HADA        -0.1630     1.2850     0.2990 hc         1 RLT       0.058700
     41 HADB        -0.7480     0.7510     1.8920 hc         1 RLT       0.058700
     42 HOAH        -0.2440    -5.4940    -0.8490 ho         1 RLT       0.494000
     43 HAJ         -4.4080     3.8940    -1.8220 ha         1 RLT       0.134500
     44 HAK         -5.7760     2.6880     2.0840 ha         1 RLT       0.134500
     45 HAL         -4.0630     1.5060    -2.4480 ha         1 RLT       0.122000
     46 HAM         -5.4370     0.2950     1.4740 ha         1 RLT       0.122000
     47 HAN         -4.6680    -0.8590    -1.9840 h1         1 RLT       0.058200
     48 HANA        -5.2360    -1.3560    -0.3740 h1         1 RLT       0.058200
     49 HNAR        -2.5310    -0.4740    -0.1300 hn         1 RLT       0.341500
     50 HNAS         2.5160    -0.0220    -0.3780 hn         1 RLT       0.344500
     51 OAH         -0.9810    -4.8410    -0.9110 oh         1 RLT      -0.466100
     52 CAU         -2.6410    -2.3950    -0.7610 c          1 RLT       0.628300
     53 FAI         -5.2980     4.7300     0.5030 f          1 RLT      -0.177000
@<TRIPOS>BOND
     1     1    20 1   
     2     1    30 1   
     3     1    31 1   
     4     1    32 1   
     5     2    28 1   
     6     2    33 1   
     7     2    34 1   
     8     2    35 1   
     9     3    29 1   
    10     3    36 1   
    11     3    37 1   
    12     3    38 1   
    13     4    29 1   
    14     4    39 1   
    15     4    40 1   
    16     4    41 1   
    17     5    52 2   
    18     6    19 2   
    19     7    27 2   
    20     8    10 ar  
    21     8    21 ar  
    22     8    43 1   
    23     9    11 ar  
    24     9    21 ar  
    25     9    44 1   
    26    10    22 ar  
    27    10    45 1   
    28    11    22 ar  
    29    11    46 1   
    30    12    16 1   
    31    12    22 1   
    32    12    47 1   
    33    12    48 1   
    34    13    14 1   
    35    13    20 2   
    36    14    24 2   
    37    15    25 1   
    38    15    26 2   
    39    16    49 1   
    40    16    52 1   
    41    17    19 1   
    42    17    29 1   
    43    17    50 1   
    44    18    20 1   
    45    18    24 1   
    46    19    24 1   
    47    21    53 1   
    48    23    25 2   
    49    23    27 1   
    50    23    51 1   
    51    25    52 1   
    52    26    28 1   
    53    26    29 1   
    54    27    28 1   
    55    42    51 1   
@<TRIPOS>SUBSTRUCTURE
     1 RLT         1 TEMP              0 ****  ****    0 ROOT
