@<TRIPOS>MOLECULE
RLU
   36    38     1     0     0
SMALL
abcg2


@<TRIPOS>ATOM
      1 C16        -48.4180   -28.4710     4.9440 cc         1 RLU      -0.173200
      2 C17        -49.0130   -28.2670     6.1590 cd         1 RLU      -0.186100
      3 C15        -47.0840   -28.9110     5.2140 ca         1 RLU      -0.151800
      4 C14        -45.9460   -29.2980     4.5070 ca         1 RLU       0.128500
      5 C13        -45.9200   -29.3180     3.0010 c          1 RLU       0.490600
      6 C11        -43.9650   -27.4540     0.9040 ca         1 RLU      -0.097000
      7 C10        -43.8600   -26.2560     0.2090 ca         1 RLU      -0.093500
      8 C19        -46.9430   -28.9470     6.6360 ca         1 RLU       0.114500
      9 C03        -43.2630   -30.6820     0.7940 c3         1 RLU      -0.216400
     10 C04        -44.5760   -29.9120     1.0350 c3         1 RLU       0.165000
     11 C05        -44.5320   -28.5800     0.3120 ca         1 RLU      -0.045300
     12 C06        -45.0030   -28.4860    -0.9950 ca         1 RLU      -0.097000
     13 C07        -44.9040   -27.2970    -1.7110 ca         1 RLU      -0.093500
     14 C08        -44.3280   -26.1950    -1.0960 ca         1 RLU      -0.017900
     15 C21        -44.8340   -29.6530     6.4930 ca         1 RLU       0.135900
     16 N12        -44.7780   -29.7640     2.4660 ns         1 RLU      -0.457900
     17 N18        -48.1250   -28.5520     7.1790 na         1 RLU      -0.341400
     18 N20        -45.8460   -29.3070     7.2890 nb         1 RLU      -0.207000
     19 N22        -44.8350   -29.6650     5.1570 nb         1 RLU      -0.170000
     20 O01        -43.4880   -33.0630     0.9490 o          1 RLU      -0.727500
     21 O23        -46.8920   -28.9400     2.3430 o          1 RLU      -0.640100
     22 O24        -42.9450   -31.9170     2.8030 o          1 RLU      -0.727500
     23 BR09       -44.1780   -24.5470    -2.0680 br         1 RLU      -0.158100
     24 H161       -48.8720   -28.3290     3.9810 ha         1 RLU       0.231000
     25 H171       -50.0120   -27.9350     6.3920 h4         1 RLU       0.208000
     26 H111       -43.6040   -27.5070     1.9230 ha         1 RLU       0.124000
     27 H101       -43.4200   -25.3860     0.6770 ha         1 RLU       0.116000
     28 H032       -43.1760   -30.8660    -0.2760 hc         1 RLU       0.037700
     29 H031       -42.4310   -30.0500     1.1100 hc         1 RLU       0.037700
     30 H041       -45.4050   -30.4950     0.6220 h1         1 RLU       0.067700
     31 H061       -45.4550   -29.3500    -1.4660 ha         1 RLU       0.124000
     32 H071       -45.2740   -27.2350    -2.7250 ha         1 RLU       0.116000
     33 H211       -43.9130   -29.9550     6.9790 h5         1 RLU       0.052100
     34 H121       -44.0880   -30.1890     3.0790 hn         1 RLU       0.391500
     35 H181       -48.3190   -28.4810     8.1660 hn         1 RLU       0.354000
     36 C02        -43.2220   -32.0090     1.5740 c          1 RLU       0.707000
@<TRIPOS>BOND
     1     1     2 2   
     2     1     3 1   
     3     1    24 1   
     4     2    17 1   
     5     2    25 1   
     6     3     4 ar  
     7     3     8 ar  
     8     4     5 1   
     9     4    19 ar  
    10     5    16 1   
    11     5    21 2   
    12     6     7 ar  
    13     6    11 ar  
    14     6    26 1   
    15     7    14 ar  
    16     7    27 1   
    17     8    17 1   
    18     8    18 ar  
    19     9    10 1   
    20     9    28 1   
    21     9    29 1   
    22     9    36 1   
    23    10    11 1   
    24    10    16 1   
    25    10    30 1   
    26    11    12 ar  
    27    12    13 ar  
    28    12    31 1   
    29    13    14 ar  
    30    13    32 1   
    31    14    23 1   
    32    15    18 ar  
    33    15    19 ar  
    34    15    33 1   
    35    16    34 1   
    36    17    35 1   
    37    20    36 1   
    38    22    36 1   
@<TRIPOS>SUBSTRUCTURE
     1 RLU         1 TEMP              0 ****  ****    0 ROOT
