@<TRIPOS>MOLECULE
RLU
   36    38     1     0     0
SMALL
No Charge or Current Charge


@<TRIPOS>ATOM
      1 C16        -48.4830   -28.7860     4.8920 cc         1 RLU      -0.173200
      2 C17        -49.2130   -28.5420     6.0440 cd         1 RLU      -0.186100
      3 C15        -47.1200   -28.9880     5.2940 ca         1 RLU      -0.151800
      4 C14        -45.9500   -29.2700     4.5490 ca         1 RLU       0.128500
      5 C13        -45.9320   -29.4210     3.0300 c          1 RLU       0.490600
      6 C11        -43.4270   -27.5930     0.6510 ca         1 RLU      -0.097000
      7 C10        -43.3780   -26.3670    -0.0350 ca         1 RLU      -0.093500
      8 C19        -47.0640   -28.8630     6.6640 ca         1 RLU       0.114500
      9 C03        -43.1780   -30.7500     0.8140 c3         1 RLU      -0.216400
     10 C04        -44.4500   -29.9050     1.0460 c3         1 RLU       0.165000
     11 C05        -44.3870   -28.5680     0.3050 ca         1 RLU      -0.045300
     12 C06        -45.3010   -28.2940    -0.7340 ca         1 RLU      -0.097000
     13 C07        -45.2520   -27.0670    -1.4200 ca         1 RLU      -0.093500
     14 C08        -44.2910   -26.1060    -1.0690 ca         1 RLU      -0.017900
     15 C21        -44.8160   -29.2710     6.5730 ca         1 RLU       0.135900
     16 N12        -44.7000   -29.7000     2.4730 ns         1 RLU      -0.457900
     17 N18        -48.3330   -28.5890     7.1520 na         1 RLU      -0.341400
     18 N20        -45.9040   -29.0030     7.3310 nb         1 RLU      -0.207000
     19 N22        -44.7790   -29.4100     5.2260 nb         1 RLU      -0.170000
     20 O01        -43.8570   -33.0160     0.8570 o          1 RLU      -0.727500
     21 O23        -46.9290   -29.3080     2.3260 o          1 RLU      -0.640100
     22 O24        -42.9230   -32.2370     2.6360 o          1 RLU      -0.727500
     23 Br09       -44.2260   -24.4380    -2.0010 br         1 RLU      -0.158100
     24 H161       -48.8920   -28.8130     3.8820 ha         1 RLU       0.231000
     25 H171       -50.2770   -28.3420     6.1540 h4         1 RLU       0.208000
     26 H111       -42.7180   -27.7840     1.4530 ha         1 RLU       0.124000
     27 H101       -42.6350   -25.6210     0.2370 ha         1 RLU       0.116000
     28 H032       -43.1050   -30.8720    -0.2730 hc         1 RLU       0.037700
     29 H031       -42.3410   -30.1940     1.2520 hc         1 RLU       0.037700
     30 H041       -45.2960   -30.4790     0.6450 h1         1 RLU       0.067700
     31 H061       -46.0510   -29.0310    -1.0100 ha         1 RLU       0.124000
     32 H071       -45.9600   -26.8640    -2.2200 ha         1 RLU       0.116000
     33 H211       -43.8710   -29.3860     7.1010 h5         1 RLU       0.052100
     34 H121       -43.9270   -29.8220     3.1180 hn         1 RLU       0.391500
     35 H181       -48.5770   -28.4500     8.1290 hn         1 RLU       0.354000
     36 C02        -43.3210   -32.1180     1.4870 c          1 RLU       0.707000
@<TRIPOS>BOND
     1     1     2 2   
     2     1     3 1   
     3     1    24 1   
     4     2    17 1   
     5     2    25 1   
     6     3     4 ar  
     7     3     8 ar  
     8     4     5 1   
     9     4    19 ar  
    10     5    16 1   
    11     5    21 2   
    12     6     7 ar  
    13     6    11 ar  
    14     6    26 1   
    15     7    14 ar  
    16     7    27 1   
    17     8    17 1   
    18     8    18 ar  
    19     9    10 1   
    20     9    28 1   
    21     9    29 1   
    22     9    36 1   
    23    10    11 1   
    24    10    16 1   
    25    10    30 1   
    26    11    12 ar  
    27    12    13 ar  
    28    12    31 1   
    29    13    14 ar  
    30    13    32 1   
    31    14    23 1   
    32    15    18 ar  
    33    15    19 ar  
    34    15    33 1   
    35    16    34 1   
    36    17    35 1   
    37    20    36 1   
    38    22    36 1   
@<TRIPOS>SUBSTRUCTURE
     1 RLU         1 TEMP              0 ****  ****    0 ROOT
