@<TRIPOS>MOLECULE
RLV
   40    41     1     0     0
SMALL
bcc


@<TRIPOS>ATOM
      1 C01          5.6090     2.1300     0.1930 c3         1 RLV       0.094300
      2 C03          5.0210    -0.2320    -0.1890 c          1 RLV       0.705500
      3 C04          3.7620    -1.0710    -0.1290 c5         1 RLV      -0.164400
      4 C05          2.8040    -0.2470     0.7370 c5         1 RLV      -0.042400
      5 C06          1.3490    -0.4620     0.4340 ca         1 RLV      -0.021300
      6 C07          0.5290    -1.0940     1.3650 ca         1 RLV      -0.144500
      7 C08         -0.8080    -1.3350     1.0970 ca         1 RLV      -0.031500
      8 C09         -1.3370    -0.9340    -0.1220 ca         1 RLV      -0.309500
      9 C13         -3.6310     1.3990    -0.1280 c3         1 RLV       0.196800
     10 C14         -4.6420     2.3260     0.5300 c3         1 RLV      -0.079400
     11 C15         -4.4190     3.7730     0.1160 c3         1 RLV      -0.092100
     12 C17         -0.5410    -0.2990    -1.0670 ca         1 RLV      -0.031500
     13 C18          0.7950    -0.0700    -0.7840 ca         1 RLV      -0.144500
     14 C19          3.3070     1.1900     0.5340 c5         1 RLV       0.104000
     15 N02          4.7090     1.0090     0.2300 n          1 RLV      -0.485800
     16 N12         -3.8800     0.0200     0.2910 n7         1 RLV      -0.807100
     17 O11         -3.2680    -1.0510    -1.8770 o          1 RLV      -0.601300
     18 O16         -3.4630    -2.4250     0.2230 o          1 RLV      -0.601300
     19 O20          6.1180    -0.6050    -0.5720 o          1 RLV      -0.619500
     20 S10         -3.0580    -1.1990    -0.4460 sy         1 RLV       1.289200
     21 H1           6.6220     1.7800     0.0150 h1         1 RLV       0.043700
     22 H2           5.3380     2.8310    -0.5990 h1         1 RLV       0.043700
     23 H3           5.5870     2.6640     1.1430 h1         1 RLV       0.043700
     24 H4           3.3890    -1.2010    -1.1490 hc         1 RLV       0.082700
     25 H5           3.9620    -2.0640     0.2710 hc         1 RLV       0.082700
     26 H6           2.9800    -0.5170     1.7820 hc         1 RLV       0.069700
     27 H7           0.9410    -1.4110     2.3140 ha         1 RLV       0.138500
     28 H8          -1.4190    -1.8380     1.8360 ha         1 RLV       0.155000
     29 H9          -3.7360     1.4550    -1.2110 h1         1 RLV       0.051700
     30 H10         -2.6140     1.7210     0.1250 h1         1 RLV       0.051700
     31 H11         -5.6500     2.0070     0.2570 hc         1 RLV       0.050700
     32 H12         -4.5650     2.2360     1.6170 hc         1 RLV       0.050700
     33 H13         -5.1410     4.4320     0.5980 hc         1 RLV       0.037033
     34 H14         -3.4210     4.1180     0.3910 hc         1 RLV       0.037033
     35 H15         -4.5280     3.8960    -0.9630 hc         1 RLV       0.037033
     36 H16         -0.9460     0.0110    -2.0210 ha         1 RLV       0.155000
     37 H17          1.4040     0.4210    -1.5330 ha         1 RLV       0.138500
     38 H18          2.7950     1.7020    -0.2870 h1         1 RLV       0.048700
     39 H19          3.1790     1.7980     1.4310 h1         1 RLV       0.048700
     40 H20         -3.9010    -0.1000     1.2990 hn         1 RLV       0.421800
@<TRIPOS>BOND
     1     1    15 1   
     2     1    21 1   
     3     1    22 1   
     4     1    23 1   
     5     2     3 1   
     6     2    15 1   
     7     2    19 2   
     8     3     4 1   
     9     3    24 1   
    10     3    25 1   
    11     4     5 1   
    12     4    14 1   
    13     4    26 1   
    14     5     6 ar  
    15     5    13 ar  
    16     6     7 ar  
    17     6    27 1   
    18     7     8 ar  
    19     7    28 1   
    20     8    12 ar  
    21     8    20 1   
    22     9    10 1   
    23     9    16 1   
    24     9    29 1   
    25     9    30 1   
    26    10    11 1   
    27    10    31 1   
    28    10    32 1   
    29    11    33 1   
    30    11    34 1   
    31    11    35 1   
    32    12    13 ar  
    33    12    36 1   
    34    13    37 1   
    35    14    15 1   
    36    14    38 1   
    37    14    39 1   
    38    16    20 1   
    39    16    40 1   
    40    17    20 2   
    41    18    20 2   
@<TRIPOS>SUBSTRUCTURE
     1 RLV         1 TEMP              0 ****  ****    0 ROOT
