@<TRIPOS>MOLECULE
RLV
   40    41     1     0     0
SMALL
No Charge or Current Charge


@<TRIPOS>ATOM
      1 C01          5.5090     2.2910    -0.2490 c3         1 RLV       0.094300
      2 C03          4.9690    -0.1430    -0.1840 c          1 RLV       0.563000
      3 C04          3.6860    -0.9650    -0.1360 c5         1 RLV      -0.164400
      4 C05          2.7380    -0.0290     0.6670 c5         1 RLV      -0.042400
      5 C06          1.2720    -0.3810     0.3760 ca         1 RLV      -0.021300
      6 C07          0.4320    -0.7460     1.4470 ca         1 RLV      -0.126500
      7 C08         -0.9170    -1.0740     1.2330 ca         1 RLV      -0.013500
      8 C09         -1.4510    -1.0420    -0.0700 ca         1 RLV      -0.309500
      9 C13         -3.4400     1.1360     0.3840 c3         1 RLV       0.196800
     10 C14         -4.2690     2.4090     0.1260 c3         1 RLV      -0.079400
     11 C15         -3.8780     3.5790     1.0510 c3         1 RLV      -0.092100
     12 C17         -0.6250    -0.6800    -1.1500 ca         1 RLV      -0.013500
     13 C18          0.7240    -0.3530    -0.9270 ca         1 RLV      -0.126500
     14 C19          3.0940     1.3670     0.0550 c5         1 RLV       0.104000
     15 N02          4.5340     1.1850    -0.2260 n          1 RLV      -0.418800
     16 N12         -3.8560     0.0740    -0.5460 n7         1 RLV      -0.862300
     17 O11         -3.3120    -2.0810    -1.6720 o          1 RLV      -0.530500
     18 O16         -3.7870    -1.9970     0.8530 o          1 RLV      -0.530500
     19 O20          6.1240    -0.4950     0.0040 o          1 RLV      -0.544000
     20 S10         -3.1840    -1.4420    -0.3600 sy         1 RLV       1.147600
     21 H1           6.2330     2.1320    -1.0580 h1         1 RLV       0.043700
     22 H2           4.9900     3.2430    -0.4160 h1         1 RLV       0.043700
     23 H3           6.0410     2.3350     0.7100 h1         1 RLV       0.043700
     24 H4           3.3300    -1.0680    -1.1650 hc         1 RLV       0.082700
     25 H5           3.8530    -1.9550     0.2990 hc         1 RLV       0.082700
     26 H6           2.9800    -0.0540     1.7370 hc         1 RLV       0.069700
     27 H7           0.8270    -0.7760     2.4600 ha         1 RLV       0.120500
     28 H8          -1.5410    -1.3490     2.0830 ha         1 RLV       0.137000
     29 H9          -2.3780     1.3820     0.2490 h1         1 RLV       0.051700
     30 H10         -3.5820     0.8220     1.4280 h1         1 RLV       0.051700
     31 H11         -4.1370     2.7210    -0.9180 hc         1 RLV       0.050700
     32 H12         -5.3340     2.1870     0.2640 hc         1 RLV       0.050700
     33 H13         -4.4910     4.4620     0.8310 hc         1 RLV       0.037033
     34 H14         -4.0300     3.3100     2.1030 hc         1 RLV       0.037033
     35 H15         -2.8240     3.8500     0.9110 hc         1 RLV       0.037033
     36 H16         -1.0240    -0.6440    -2.1630 ha         1 RLV       0.137000
     37 H17          1.3380    -0.0760    -1.7800 ha         1 RLV       0.120500
     38 H18          2.5520     1.5840    -0.8740 h1         1 RLV       0.048700
     39 H19          2.9070     2.1850     0.7640 h1         1 RLV       0.048700
     40 H20         -4.8390    -0.1400    -0.3880 hn         1 RLV       0.477000
@<TRIPOS>BOND
     1     1    15 1   
     2     1    21 1   
     3     1    22 1   
     4     1    23 1   
     5     2     3 1   
     6     2    15 1   
     7     2    19 2   
     8     3     4 1   
     9     3    24 1   
    10     3    25 1   
    11     4     5 1   
    12     4    14 1   
    13     4    26 1   
    14     5     6 ar  
    15     5    13 ar  
    16     6     7 ar  
    17     6    27 1   
    18     7     8 ar  
    19     7    28 1   
    20     8    12 ar  
    21     8    20 1   
    22     9    10 1   
    23     9    16 1   
    24     9    29 1   
    25     9    30 1   
    26    10    11 1   
    27    10    31 1   
    28    10    32 1   
    29    11    33 1   
    30    11    34 1   
    31    11    35 1   
    32    12    13 ar  
    33    12    36 1   
    34    13    37 1   
    35    14    15 1   
    36    14    38 1   
    37    14    39 1   
    38    16    20 1   
    39    16    40 1   
    40    17    20 2   
    41    18    20 2   
@<TRIPOS>SUBSTRUCTURE
     1 RLV         1 TEMP              0 ****  ****    0 ROOT
