@<TRIPOS>MOLECULE
RLW
   44    46     1     0     0
SMALL
bcc


@<TRIPOS>ATOM
      1 C16        -23.5730   119.6990   353.9350 c5         1 RLW      -0.093900
      2 C17        -22.5970   119.9750   355.0890 c5         1 RLW      -0.072900
      3 C18        -21.1840   119.7730   354.4930 c5         1 RLW      -0.072900
      4 C19        -21.4020   119.3970   353.0200 c5         1 RLW      -0.093900
      5 C20        -21.8350   116.4520   351.6350 ca         1 RLW      -0.173000
      6 C15        -22.8020   118.7920   352.9900 c5         1 RLW       0.144100
      7 C13        -22.2660   116.4480   352.9500 ca         1 RLW       0.114100
      8 C12        -22.4870   114.2030   355.7990 c3         1 RLW       0.121700
      9 C10        -22.1510   115.2700   353.7140 ca         1 RLW       0.125100
     10 C02        -20.2010   115.8010   347.4590 c          1 RLW       0.687500
     11 C03        -20.8200   116.4750   348.6810 c5         1 RLW      -0.209300
     12 C04        -22.2270   116.9560   348.3100 c3         1 RLW      -0.067100
     13 C05        -19.9140   117.6350   349.1050 c3         1 RLW      -0.067100
     14 C06        -20.8150   115.3180   349.6550 ce         1 RLW       0.392900
     15 C07        -21.2830   115.3090   351.0410 ca         1 RLW      -0.118900
     16 C08        -21.1820   114.1530   351.8070 ca         1 RLW      -0.090000
     17 C09        -21.6120   114.1340   353.1250 ca         1 RLW      -0.198000
     18 O11        -22.5860   115.3500   354.9800 os         1 RLW      -0.294900
     19 O14        -22.8240   117.4930   353.5830 os         1 RLW      -0.306900
     20 N21        -20.3230   114.2550   349.1310 n2         1 RLW      -0.431300
     21 N22        -19.9620   114.5290   347.8460 ns         1 RLW      -0.349900
     22 H161       -23.8090   120.6220   353.4000 hc         1 RLW       0.053450
     23 H162       -24.5210   119.2640   354.2560 hc         1 RLW       0.053450
     24 H171       -22.7330   120.9790   355.4920 hc         1 RLW       0.046200
     25 H172       -22.7690   119.2820   355.9120 hc         1 RLW       0.046200
     26 H181       -20.6570   118.9750   355.0170 hc         1 RLW       0.046200
     27 H182       -20.5660   120.6660   354.5840 hc         1 RLW       0.046200
     28 H191       -20.6240   118.7420   352.6230 hc         1 RLW       0.053450
     29 H192       -21.4130   120.2890   352.3900 hc         1 RLW       0.053450
     30 H201       -21.9280   117.3610   351.0600 ha         1 RLW       0.138000
     31 H151       -23.2440   118.7580   351.9880 h1         1 RLW       0.048700
     32 H121       -22.8840   114.4830   356.7710 h1         1 RLW       0.041033
     33 H123       -23.0730   113.3680   355.4060 h1         1 RLW       0.041033
     34 H122       -21.4500   113.8770   355.9220 h1         1 RLW       0.041033
     35 H042       -22.7010   117.4860   349.1340 hc         1 RLW       0.048700
     36 H043       -22.1660   117.6420   347.4650 hc         1 RLW       0.048700
     37 H041       -22.8740   116.1240   348.0280 hc         1 RLW       0.048700
     38 H052       -20.3240   118.1780   349.9550 hc         1 RLW       0.048700
     39 H051       -18.9180   117.2860   349.3780 hc         1 RLW       0.048700
     40 H053       -19.8140   118.3410   348.2800 hc         1 RLW       0.048700
     41 H081       -20.7610   113.2530   351.3810 ha         1 RLW       0.149000
     42 H091       -21.5150   113.2160   353.6900 ha         1 RLW       0.140000
     43 H221       -19.5550   113.7960   347.2860 hn         1 RLW       0.361500
     44 O01        -19.9720   116.2940   346.3750 o          1 RLW      -0.595500
@<TRIPOS>BOND
     1     1     2 1   
     2     1     6 1   
     3     1    22 1   
     4     1    23 1   
     5     2     3 1   
     6     2    24 1   
     7     2    25 1   
     8     3     4 1   
     9     3    26 1   
    10     3    27 1   
    11     4     6 1   
    12     4    28 1   
    13     4    29 1   
    14     5     7 ar  
    15     5    15 ar  
    16     5    30 1   
    17     6    19 1   
    18     6    31 1   
    19     7     9 ar  
    20     7    19 1   
    21     8    18 1   
    22     8    32 1   
    23     8    33 1   
    24     8    34 1   
    25     9    17 ar  
    26     9    18 1   
    27    10    11 1   
    28    10    21 1   
    29    10    44 2   
    30    11    12 1   
    31    11    13 1   
    32    11    14 1   
    33    12    35 1   
    34    12    36 1   
    35    12    37 1   
    36    13    38 1   
    37    13    39 1   
    38    13    40 1   
    39    14    15 1   
    40    14    20 2   
    41    15    16 ar  
    42    16    17 ar  
    43    16    41 1   
    44    17    42 1   
    45    20    21 1   
    46    21    43 1   
@<TRIPOS>SUBSTRUCTURE
     1 RLW         1 TEMP              0 ****  ****    0 ROOT
