@<TRIPOS>MOLECULE
RLW
   44    46     1     0     0
SMALL
No Charge or Current Charge


@<TRIPOS>ATOM
      1 C16        -23.1180   120.0990   353.6190 c5         1 RLW      -0.093900
      2 C17        -23.1160   119.8480   355.1560 c5         1 RLW      -0.072900
      3 C18        -21.7450   119.1580   355.4520 c5         1 RLW      -0.072900
      4 C19        -21.0700   118.9730   354.0580 c5         1 RLW      -0.093900
      5 C20        -21.9670   116.5320   351.4140 ca         1 RLW      -0.155000
      6 C15        -22.2720   118.9230   353.0720 c5         1 RLW       0.167300
      7 C13        -22.3320   116.6050   352.7750 ca         1 RLW       0.114100
      8 C12        -22.1360   114.5890   355.9310 c3         1 RLW       0.144900
      9 C10        -22.0290   115.5350   353.6470 ca         1 RLW       0.125100
     10 C02        -20.3370   115.6660   347.1280 c          1 RLW       0.545000
     11 C03        -21.0310   116.3580   348.3230 c5         1 RLW      -0.209300
     12 C04        -22.5230   116.5990   347.9520 c3         1 RLW      -0.067100
     13 C05        -20.3120   117.7120   348.5960 c3         1 RLW      -0.067100
     14 C06        -20.8410   115.3280   349.4590 ce         1 RLW       0.392900
     15 C07        -21.2560   115.4210   350.9060 ca         1 RLW      -0.118900
     16 C08        -20.9370   114.3710   351.7980 ca         1 RLW      -0.072000
     17 C09        -21.3220   114.4210   353.1480 ca         1 RLW      -0.180000
     18 O11        -22.4280   115.6180   354.9710 os         1 RLW      -0.318100
     19 O14        -23.0380   117.6950   353.2590 os         1 RLW      -0.330100
     20 N21        -20.2000   114.3060   348.9840 n2         1 RLW      -0.431300
     21 N22        -19.9070   114.4850   347.6650 ns         1 RLW      -0.282900
     22 H161       -22.6520   121.0610   353.3740 hc         1 RLW       0.053450
     23 H162       -24.1300   120.1170   353.1990 hc         1 RLW       0.053450
     24 H171       -23.2400   120.7810   355.7190 hc         1 RLW       0.046200
     25 H172       -23.9470   119.1930   355.4470 hc         1 RLW       0.046200
     26 H181       -21.8980   118.1930   355.9480 hc         1 RLW       0.046200
     27 H182       -21.1190   119.7590   356.1220 hc         1 RLW       0.046200
     28 H191       -20.4360   118.0800   354.0150 hc         1 RLW       0.053450
     29 H192       -20.4220   119.8250   353.8250 hc         1 RLW       0.053450
     30 H201       -22.2570   117.3400   350.7560 ha         1 RLW       0.120000
     31 H151       -21.9890   119.0690   352.0220 h1         1 RLW       0.048700
     32 H121       -22.5400   114.8620   356.9140 h1         1 RLW       0.041033
     33 H123       -22.5890   113.6350   355.6310 h1         1 RLW       0.041033
     34 H122       -21.0530   114.4490   356.0360 h1         1 RLW       0.041033
     35 H042       -23.0820   117.0990   348.7500 hc         1 RLW       0.048700
     36 H043       -22.6130   117.2260   347.0560 hc         1 RLW       0.048700
     37 H041       -23.0340   115.6520   347.7400 hc         1 RLW       0.048700
     38 H052       -20.7570   118.2640   349.4300 hc         1 RLW       0.048700
     39 H051       -19.2540   117.5530   348.8370 hc         1 RLW       0.048700
     40 H053       -20.3530   118.3670   347.7170 hc         1 RLW       0.048700
     41 H081       -20.3920   113.4970   351.4460 ha         1 RLW       0.131000
     42 H091       -21.0620   113.5840   353.7900 ha         1 RLW       0.122000
     43 H221       -19.4030   113.8190   347.0810 hn         1 RLW       0.361500
     44 O01        -20.1810   116.0330   345.9730 o          1 RLW      -0.520000
@<TRIPOS>BOND
     1     1     2 1   
     2     1     6 1   
     3     1    22 1   
     4     1    23 1   
     5     2     3 1   
     6     2    24 1   
     7     2    25 1   
     8     3     4 1   
     9     3    26 1   
    10     3    27 1   
    11     4     6 1   
    12     4    28 1   
    13     4    29 1   
    14     5     7 ar  
    15     5    15 ar  
    16     5    30 1   
    17     6    19 1   
    18     6    31 1   
    19     7     9 ar  
    20     7    19 1   
    21     8    18 1   
    22     8    32 1   
    23     8    33 1   
    24     8    34 1   
    25     9    17 ar  
    26     9    18 1   
    27    10    11 1   
    28    10    21 1   
    29    10    44 2   
    30    11    12 1   
    31    11    13 1   
    32    11    14 1   
    33    12    35 1   
    34    12    36 1   
    35    12    37 1   
    36    13    38 1   
    37    13    39 1   
    38    13    40 1   
    39    14    15 1   
    40    14    20 2   
    41    15    16 ar  
    42    16    17 ar  
    43    16    41 1   
    44    17    42 1   
    45    20    21 1   
    46    21    43 1   
@<TRIPOS>SUBSTRUCTURE
     1 RLW         1 TEMP              0 ****  ****    0 ROOT
