@<TRIPOS>MOLECULE
RLY
   61    63     1     0     0
SMALL
No Charge or Current Charge


@<TRIPOS>ATOM
      1 C03         -2.4210    -0.3670    -0.8930 ca         1 RLY      -0.292500
      2 C04         -2.2700    -1.7430    -1.1440 ca         1 RLY      -0.017000
      3 C05         -1.0130    -2.3480    -0.9990 ca         1 RLY      -0.133000
      4 C07          1.5330    -2.1650    -0.4560 c5         1 RLY      -0.045400
      5 C12          1.5040    -3.3480     0.5660 c5         1 RLY       0.104000
      6 C14         -0.0300    -0.1900    -0.3250 cp         1 RLY      -0.042000
      7 C06          0.1070    -1.5850    -0.6020 ca         1 RLY      -0.011300
      8 C08          1.9510    -2.9050    -1.7600 c5         1 RLY      -0.163400
      9 C09          3.0210    -3.8610    -1.2450 c          1 RLY       0.564000
     10 C15          1.0800     0.6880     0.1470 cp         1 RLY      -0.051000
     11 C16          1.6200     0.5380     1.4430 ca         1 RLY      -0.100000
     12 C17          2.6560     1.3710     1.8960 ca         1 RLY      -0.174000
     13 C18          3.1690     2.3850     1.0560 ca         1 RLY       0.119100
     14 C20          4.7990     3.1230     2.7670 c3         1 RLY       0.144900
     15 C21          2.6300     2.5580    -0.2420 ca         1 RLY       0.116100
     16 C23          2.6620     3.8110    -2.3790 c3         1 RLY       0.142900
     17 C24          1.5880     1.7110    -0.6840 ca         1 RLY      -0.158000
     18 C25         -1.3070     0.3960    -0.4930 ca         1 RLY      -0.006000
     19 C27         -5.0340     1.8730     1.0160 c3         1 RLY       0.224300
     20 C28         -3.8940     2.7790     1.5340 c3         1 RLY      -0.113600
     21 C29         -3.9380    -0.3390     1.5490 c3         1 RLY       0.224300
     22 C30         -4.7310    -0.5380     2.8550 c3         1 RLY      -0.113600
     23 N10          2.6050    -4.1870     0.0490 n          1 RLY      -0.419800
     24 N26         -4.6090     0.5290     0.5500 n3         1 RLY      -0.783500
     25 O01         -3.7870     1.7960    -1.5190 o          1 RLY      -0.540000
     26 O13          4.1170    -4.1270    -1.7170 o          1 RLY      -0.547000
     27 O19          4.1910     3.2260     1.4680 os         1 RLY      -0.317100
     28 O22          3.1460     3.5620    -1.0470 os         1 RLY      -0.320100
     29 O31         -4.9630    -0.4660    -1.7740 o          1 RLY      -0.540000
     30 S02         -4.0360     0.4230    -1.0640 sy         1 RLY       1.188600
     31 H1          -3.1220    -2.3490    -1.4490 ha         1 RLY       0.134000
     32 H2          -0.9190    -3.4120    -1.1970 ha         1 RLY       0.118000
     33 H3           2.3140    -1.4480    -0.1830 hc         1 RLY       0.082700
     34 H4           2.8730    -5.3260     1.8120 h1         1 RLY       0.042700
     35 H5           3.6370    -6.0090     0.3490 h1         1 RLY       0.042700
     36 H6           4.3620    -4.5840     1.1560 h1         1 RLY       0.042700
     37 H7           1.6850    -3.0060     1.5940 h1         1 RLY       0.046700
     38 H8           0.5590    -3.9070     0.5470 h1         1 RLY       0.046700
     39 H9           1.1260    -3.5190    -2.1330 hc         1 RLY       0.081700
     40 H10          2.3290    -2.2660    -2.5640 hc         1 RLY       0.081700
     41 H11          1.2290    -0.2360     2.1000 ha         1 RLY       0.113000
     42 H12          3.0440     1.2160     2.8980 ha         1 RLY       0.121000
     43 H13          4.0560     3.2820     3.5590 h1         1 RLY       0.041033
     44 H14          5.2590     2.1370     2.9060 h1         1 RLY       0.041033
     45 H15          5.5830     3.8820     2.8800 h1         1 RLY       0.041033
     46 H16          1.5960     4.0710    -2.3640 h1         1 RLY       0.043033
     47 H17          3.2100     4.6470    -2.8310 h1         1 RLY       0.043033
     48 H18          2.8020     2.9290    -3.0160 h1         1 RLY       0.043033
     49 H19          1.1590     1.8230    -1.6750 ha         1 RLY       0.128000
     50 H20         -1.4250     1.4580    -0.2870 ha         1 RLY       0.141000
     51 H21         -5.7640     1.7650     1.8290 h1         1 RLY       0.055450
     52 H22         -5.5690     2.4030     0.2150 h1         1 RLY       0.055450
     53 H23         -4.3010     3.7500     1.8400 hc         1 RLY       0.044867
     54 H24         -3.3990     2.3340     2.4040 hc         1 RLY       0.044867
     55 H25         -3.1400     2.9590     0.7600 hc         1 RLY       0.044867
     56 H26         -2.9410     0.0520     1.7970 h1         1 RLY       0.055450
     57 H27         -3.7930    -1.3420     1.1250 h1         1 RLY       0.055450
     58 H28         -4.7930     0.3930     3.4300 hc         1 RLY       0.044867
     59 H29         -5.7470    -0.8880     2.6400 hc         1 RLY       0.044867
     60 H30         -4.2360    -1.2870     3.4840 hc         1 RLY       0.044867
     61 C11          3.4190    -5.0810     0.8920 c3         1 RLY       0.094300
@<TRIPOS>BOND
     1     1     2 ar  
     2     1    18 ar  
     3     1    30 1   
     4     2     3 ar  
     5     2    31 1   
     6     3     7 ar  
     7     3    32 1   
     8     4     5 1   
     9     4     7 1   
    10     4     8 1   
    11     4    33 1   
    12     5    23 1   
    13     5    37 1   
    14     5    38 1   
    15     6     7 ar  
    16     6    10 1   
    17     6    18 ar  
    18     8     9 1   
    19     8    39 1   
    20     8    40 1   
    21     9    23 1   
    22     9    26 2   
    23    10    11 ar  
    24    10    17 ar  
    25    11    12 ar  
    26    11    41 1   
    27    12    13 ar  
    28    12    42 1   
    29    13    15 ar  
    30    13    27 1   
    31    14    27 1   
    32    14    43 1   
    33    14    44 1   
    34    14    45 1   
    35    15    17 ar  
    36    15    28 1   
    37    16    28 1   
    38    16    46 1   
    39    16    47 1   
    40    16    48 1   
    41    17    49 1   
    42    18    50 1   
    43    19    20 1   
    44    19    24 1   
    45    19    51 1   
    46    19    52 1   
    47    20    53 1   
    48    20    54 1   
    49    20    55 1   
    50    21    22 1   
    51    21    24 1   
    52    21    56 1   
    53    21    57 1   
    54    22    58 1   
    55    22    59 1   
    56    22    60 1   
    57    23    61 1   
    58    24    30 1   
    59    25    30 2   
    60    29    30 2   
    61    34    61 1   
    62    35    61 1   
    63    36    61 1   
@<TRIPOS>SUBSTRUCTURE
     1 RLY         1 TEMP              0 ****  ****    0 ROOT
