@<TRIPOS>MOLECULE
RLY
   61    63     1     0     0
SMALL
abcg2


@<TRIPOS>ATOM
      1 C03         -2.2190    -0.1640    -0.6470 ca         1 RLY      -0.292500
      2 C04         -2.0980    -1.5430    -0.7560 ca         1 RLY      -0.017000
      3 C05         -0.8450    -2.1110    -0.6250 ca         1 RLY      -0.133000
      4 C07          1.6350    -2.0220    -0.3030 c5         1 RLY      -0.045400
      5 C12          1.8000    -2.9240     0.9300 c5         1 RLY       0.104000
      6 C14          0.1540     0.0470    -0.2600 cp         1 RLY      -0.042000
      7 C06          0.2950    -1.3420    -0.3860 ca         1 RLY      -0.011300
      8 C08          1.9690    -2.9630    -1.4660 c5         1 RLY      -0.163400
      9 C09          2.8690    -4.0110    -0.8470 c          1 RLY       0.564000
     10 C15          1.2930     0.9450     0.0410 cp         1 RLY      -0.051000
     11 C16          1.9980     0.8360     1.2270 ca         1 RLY      -0.100000
     12 C17          3.0420     1.7130     1.5140 ca         1 RLY      -0.174000
     13 C18          3.3890     2.7120     0.6200 ca         1 RLY       0.119100
     14 C20          5.1370     3.5220     1.9910 c3         1 RLY       0.144900
     15 C21          2.6730     2.8330    -0.5900 ca         1 RLY       0.116100
     16 C23          2.3870     4.0060    -2.6260 c3         1 RLY       0.142900
     17 C24          1.6370     1.9560    -0.8630 ca         1 RLY      -0.158000
     18 C25         -1.1060     0.6240    -0.4110 ca         1 RLY      -0.006000
     19 C27         -4.1150     1.4470     1.8040 c3         1 RLY       0.224300
     20 C28         -2.9670     0.9900     2.6910 c3         1 RLY      -0.113600
     21 C29         -5.1840    -0.7220     1.1650 c3         1 RLY       0.224300
     22 C30         -6.6910    -0.5970     1.0280 c3         1 RLY      -0.113600
     23 N10          2.7490    -3.9210     0.4910 n          1 RLY      -0.419800
     24 N26         -4.4880     0.4990     0.7550 n3         1 RLY      -0.783500
     25 O01         -3.6220     1.9940    -1.0490 o          1 RLY      -0.540000
     26 O13          3.5590    -4.8140    -1.4520 o          1 RLY      -0.547000
     27 O19          4.3770     3.6060     0.8030 os         1 RLY      -0.317100
     28 O22          3.0770     3.8230    -1.4060 os         1 RLY      -0.320100
     29 O31         -4.6380    -0.2370    -1.6120 o          1 RLY      -0.540000
     30 S02         -3.8240     0.5880    -0.7340 sy         1 RLY       1.188600
     31 H1          -2.9540    -2.1720    -0.9570 ha         1 RLY       0.134000
     32 H2          -0.7540    -3.1860    -0.7280 ha         1 RLY       0.118000
     33 H3           2.4190    -1.2660    -0.2620 hc         1 RLY       0.082700
     34 H4           2.5910    -5.4120     1.9520 h1         1 RLY       0.042700
     35 H5           4.0150    -5.5120     0.9060 h1         1 RLY       0.042700
     36 H6           3.9310    -4.2800     2.1740 h1         1 RLY       0.042700
     37 H7           2.1860    -2.3730     1.7900 h1         1 RLY       0.046700
     38 H8           0.8560    -3.3910     1.2350 h1         1 RLY       0.046700
     39 H9           1.0880    -3.4700    -1.8680 hc         1 RLY       0.081700
     40 H10          2.4580    -2.4560    -2.2960 hc         1 RLY       0.081700
     41 H11          1.7360     0.0790     1.9560 ha         1 RLY       0.113000
     42 H12          3.5680     1.6040     2.4520 ha         1 RLY       0.121000
     43 H13          4.5200     3.6600     2.8830 h1         1 RLY       0.041033
     44 H14          5.6630     2.5670     2.0720 h1         1 RLY       0.041033
     45 H15          5.8700     4.3240     1.9460 h1         1 RLY       0.041033
     46 H16          1.3340     4.2520    -2.4670 h1         1 RLY       0.043033
     47 H17          2.8700     4.8380    -3.1320 h1         1 RLY       0.043033
     48 H18          2.4470     3.1220    -3.2660 h1         1 RLY       0.043033
     49 H19          1.0850     2.0320    -1.7900 ha         1 RLY       0.128000
     50 H20         -1.2030     1.6980    -0.3230 ha         1 RLY       0.141000
     51 H21         -5.0110     1.6050     2.4080 h1         1 RLY       0.055450
     52 H22         -3.8880     2.4100     1.3510 h1         1 RLY       0.055450
     53 H23         -2.8170     1.7130     3.4930 hc         1 RLY       0.044867
     54 H24         -3.1730     0.0230     3.1520 hc         1 RLY       0.044867
     55 H25         -2.0330     0.9040     2.1380 hc         1 RLY       0.044867
     56 H26         -4.9130    -0.9190     2.2030 h1         1 RLY       0.055450
     57 H27         -4.8220    -1.5830     0.6030 h1         1 RLY       0.055450
     58 H28         -7.0690     0.2460     1.6070 hc         1 RLY       0.044867
     59 H29         -6.9790    -0.4550    -0.0130 hc         1 RLY       0.044867
     60 H30         -7.1780    -1.5000     1.3960 hc         1 RLY       0.044867
     61 C11          3.3520    -4.8280     1.4300 c3         1 RLY       0.094300
@<TRIPOS>BOND
     1     1     2 ar  
     2     1    18 ar  
     3     1    30 1   
     4     2     3 ar  
     5     2    31 1   
     6     3     7 ar  
     7     3    32 1   
     8     4     5 1   
     9     4     7 1   
    10     4     8 1   
    11     4    33 1   
    12     5    23 1   
    13     5    37 1   
    14     5    38 1   
    15     6     7 ar  
    16     6    10 1   
    17     6    18 ar  
    18     8     9 1   
    19     8    39 1   
    20     8    40 1   
    21     9    23 1   
    22     9    26 2   
    23    10    11 ar  
    24    10    17 ar  
    25    11    12 ar  
    26    11    41 1   
    27    12    13 ar  
    28    12    42 1   
    29    13    15 ar  
    30    13    27 1   
    31    14    27 1   
    32    14    43 1   
    33    14    44 1   
    34    14    45 1   
    35    15    17 ar  
    36    15    28 1   
    37    16    28 1   
    38    16    46 1   
    39    16    47 1   
    40    16    48 1   
    41    17    49 1   
    42    18    50 1   
    43    19    20 1   
    44    19    24 1   
    45    19    51 1   
    46    19    52 1   
    47    20    53 1   
    48    20    54 1   
    49    20    55 1   
    50    21    22 1   
    51    21    24 1   
    52    21    56 1   
    53    21    57 1   
    54    22    58 1   
    55    22    59 1   
    56    22    60 1   
    57    23    61 1   
    58    24    30 1   
    59    25    30 2   
    60    29    30 2   
    61    34    61 1   
    62    35    61 1   
    63    36    61 1   
@<TRIPOS>SUBSTRUCTURE
     1 RLY         1 TEMP              0 ****  ****    0 ROOT
