@<TRIPOS>MOLECULE
RM0
   44    45     1     0     0
SMALL
No Charge or Current Charge


@<TRIPOS>ATOM
      1 O1          -7.4460     0.7930     0.6130 os         1 RM0      -0.450000
      2 C2          -7.3970    -0.6350     0.3830 c6         1 RM0       0.153100
      3 C3          -6.1560    -0.9990    -0.4870 c6         1 RM0       0.125800
      4 N4          -4.8820    -0.4990     0.1180 n3         1 RM0      -0.713600
      5 C5          -4.9890     0.9650     0.4250 c6         1 RM0       0.125800
      6 C6          -6.2570     1.2900     1.2720 c6         1 RM0       0.153100
      7 C7          -3.6960    -0.8630    -0.6960 c3         1 RM0       0.168800
      8 C8          -2.3340    -0.5770    -0.0220 c3         1 RM0      -0.077400
      9 C9          -1.1370    -1.1120    -0.8390 c3         1 RM0      -0.075400
     10 C10          0.2270    -0.8280    -0.1710 c3         1 RM0      -0.073400
     11 C11          1.4250    -1.3640    -0.9870 c3         1 RM0      -0.116700
     12 C1           2.7610    -1.0840    -0.3140 ca         1 RM0       0.322300
     13 N5           3.4490    -0.0090    -0.7600 nb         1 RM0      -0.620000
     14 C12          4.6530     0.2840    -0.1820 ca         1 RM0       0.290700
     15 C13          5.1900    -0.5040     0.8760 ca         1 RM0       0.103100
     16 C14          4.4660    -1.6180     1.3320 ca         1 RM0      -0.173000
     17 C15          3.2320    -1.9100     0.7240 ca         1 RM0      -0.110000
     18 O16          6.3920    -0.2030     1.4650 oh         1 RM0      -0.524100
     19 C17          5.4080     1.4880    -0.6770 ce         1 RM0       0.305200
     20 N18          4.8180     2.4980    -1.2560 n2         1 RM0      -0.294700
     21 O19          5.6740     3.5610    -1.5940 oh         1 RM0      -0.520000
     22 H1          -7.3450    -1.1580     1.3490 h1         1 RM0       0.050200
     23 H2          -8.3180    -0.9500    -0.1280 h1         1 RM0       0.050200
     24 H3          -6.1200    -2.0920    -0.6060 h1         1 RM0       0.040450
     25 H4          -6.2950    -0.5710    -1.4910 h1         1 RM0       0.040450
     26 H6          -4.1100     1.3120     0.9860 h1         1 RM0       0.040450
     27 H7          -5.0290     1.5490    -0.5070 h1         1 RM0       0.040450
     28 H8          -6.3480     2.3770     1.4070 h1         1 RM0       0.050200
     29 H9          -6.1720     0.8280     2.2660 h1         1 RM0       0.050200
     30 H10         -3.7340    -1.9380    -0.9190 h1         1 RM0       0.029200
     31 H11         -3.7280    -0.3360    -1.6600 h1         1 RM0       0.029200
     32 H12         -2.2090     0.5040     0.1160 hc         1 RM0       0.047700
     33 H13         -2.3250    -1.0350     0.9740 hc         1 RM0       0.047700
     34 H14         -1.2510    -2.1950    -0.9770 hc         1 RM0       0.036200
     35 H15         -1.1510    -0.6580    -1.8380 hc         1 RM0       0.036200
     36 H16          0.3440     0.2550    -0.0340 hc         1 RM0       0.050700
     37 H17          0.2400    -1.2790     0.8290 hc         1 RM0       0.050700
     38 H18          1.3070    -2.4450    -1.1300 hc         1 RM0       0.051200
     39 H19          1.4030    -0.9210    -1.9910 hc         1 RM0       0.051200
     40 H20          4.8410    -2.2460     2.1370 ha         1 RM0       0.121000
     41 H21          2.6440    -2.7620     1.0530 ha         1 RM0       0.125000
     42 H22          6.5750    -0.8640     2.1680 ho         1 RM0       0.470000
     43 H23          6.4720     1.5290    -0.4320 h4         1 RM0       0.023800
     44 H26          5.0890     4.2360    -2.0180 ho         1 RM0       0.471000
@<TRIPOS>BOND
     1     1     2 1   
     2     1     6 1   
     3     2     3 1   
     4     2    22 1   
     5     2    23 1   
     6     3     4 1   
     7     3    24 1   
     8     3    25 1   
     9     4     5 1   
    10     4     7 1   
    11     5     6 1   
    12     5    26 1   
    13     5    27 1   
    14     6    28 1   
    15     6    29 1   
    16     7     8 1   
    17     7    30 1   
    18     7    31 1   
    19     8     9 1   
    20     8    32 1   
    21     8    33 1   
    22     9    10 1   
    23     9    34 1   
    24     9    35 1   
    25    10    11 1   
    26    10    36 1   
    27    10    37 1   
    28    11    12 1   
    29    11    38 1   
    30    11    39 1   
    31    12    13 ar  
    32    12    17 ar  
    33    13    14 ar  
    34    14    15 ar  
    35    14    19 1   
    36    15    16 ar  
    37    15    18 1   
    38    16    17 ar  
    39    16    40 1   
    40    17    41 1   
    41    18    42 1   
    42    19    20 2   
    43    19    43 1   
    44    20    21 1   
    45    21    44 1   
@<TRIPOS>SUBSTRUCTURE
     1 RM0         1 TEMP              0 ****  ****    0 ROOT
