@<TRIPOS>MOLECULE
RM0
   44    45     1     0     0
SMALL
abcg2


@<TRIPOS>ATOM
      1 O1          -7.1720     1.1030     0.3480 os         1 RM0      -0.450000
      2 C2          -7.1450    -0.3000     0.4920 c6         1 RM0       0.153100
      3 C3          -5.9910    -0.9170    -0.2730 c6         1 RM0       0.125800
      4 N4          -4.7290    -0.3510     0.1670 n3         1 RM0      -0.713600
      5 C5          -4.7690     1.0930     0.0140 c6         1 RM0       0.125800
      6 C6          -5.9510     1.6690     0.7710 c6         1 RM0       0.153100
      7 C7          -3.6140    -0.9670    -0.5290 c3         1 RM0       0.168800
      8 C8          -2.2480    -0.5750     0.0160 c3         1 RM0      -0.077400
      9 C9          -1.1240    -1.3440    -0.6680 c3         1 RM0      -0.075400
     10 C10          0.2550    -0.9530    -0.1520 c3         1 RM0      -0.073400
     11 C11          1.3830    -1.6940    -0.8680 c3         1 RM0      -0.116700
     12 C1           2.7390    -1.3330    -0.3310 ca         1 RM0       0.322300
     13 N5           3.1300    -0.0750    -0.4630 nb         1 RM0      -0.620000
     14 C12          4.3070     0.3210     0.0130 ca         1 RM0       0.290700
     15 C13          5.1780    -0.5670     0.6600 ca         1 RM0       0.103100
     16 C14          4.7770    -1.8900     0.8010 ca         1 RM0      -0.173000
     17 C15          3.5470    -2.2750     0.3050 ca         1 RM0      -0.110000
     18 O16          6.3550    -0.1050     1.1150 oh         1 RM0      -0.524100
     19 C17          4.6910     1.7270    -0.1420 ce         1 RM0       0.305200
     20 N18          3.8940     2.5540    -0.6850 n2         1 RM0      -0.294700
     21 O19          4.4140     3.8110    -0.7400 oh         1 RM0      -0.520000
     22 H1          -7.0650    -0.5750     1.5540 h1         1 RM0       0.050200
     23 H2          -8.0940    -0.6860     0.1170 h1         1 RM0       0.050200
     24 H3          -5.9860    -1.9960    -0.0960 h1         1 RM0       0.040450
     25 H4          -6.1480    -0.7700    -1.3570 h1         1 RM0       0.040450
     26 H6          -3.8590     1.5410     0.4170 h1         1 RM0       0.040450
     27 H7          -4.8310     1.3880    -1.0490 h1         1 RM0       0.040450
     28 H8          -6.0130     2.7450     0.6020 h1         1 RM0       0.050200
     29 H9          -5.8060     1.5050     1.8480 h1         1 RM0       0.050200
     30 H10         -3.7280    -2.0510    -0.4300 h1         1 RM0       0.029200
     31 H11         -3.6480    -0.7520    -1.6120 h1         1 RM0       0.029200
     32 H12         -2.0740     0.4960    -0.1210 hc         1 RM0       0.047700
     33 H13         -2.2240    -0.7600     1.0950 hc         1 RM0       0.047700
     34 H14         -1.2730    -2.4200    -0.5270 hc         1 RM0       0.036200
     35 H15         -1.1700    -1.1700    -1.7480 hc         1 RM0       0.036200
     36 H16          0.4010     0.1240    -0.2730 hc         1 RM0       0.050700
     37 H17          0.3140    -1.1530     0.9230 hc         1 RM0       0.050700
     38 H18          1.2330    -2.7730    -0.7760 hc         1 RM0       0.051200
     39 H19          1.3410    -1.4640    -1.9370 hc         1 RM0       0.051200
     40 H20          5.4200    -2.6080     1.2970 ha         1 RM0       0.121000
     41 H21          3.2170    -3.3000     0.4090 ha         1 RM0       0.125000
     42 H22          6.8620    -0.8160     1.5240 ho         1 RM0       0.470000
     43 H23          5.6650     2.0430     0.2240 h4         1 RM0       0.023800
     44 H26          3.7230     4.3360    -1.1580 ho         1 RM0       0.471000
@<TRIPOS>BOND
     1     1     2 1   
     2     1     6 1   
     3     2     3 1   
     4     2    22 1   
     5     2    23 1   
     6     3     4 1   
     7     3    24 1   
     8     3    25 1   
     9     4     5 1   
    10     4     7 1   
    11     5     6 1   
    12     5    26 1   
    13     5    27 1   
    14     6    28 1   
    15     6    29 1   
    16     7     8 1   
    17     7    30 1   
    18     7    31 1   
    19     8     9 1   
    20     8    32 1   
    21     8    33 1   
    22     9    10 1   
    23     9    34 1   
    24     9    35 1   
    25    10    11 1   
    26    10    36 1   
    27    10    37 1   
    28    11    12 1   
    29    11    38 1   
    30    11    39 1   
    31    12    13 ar  
    32    12    17 ar  
    33    13    14 ar  
    34    14    15 ar  
    35    14    19 1   
    36    15    16 ar  
    37    15    18 1   
    38    16    17 ar  
    39    16    40 1   
    40    17    41 1   
    41    18    42 1   
    42    19    20 2   
    43    19    43 1   
    44    20    21 1   
    45    21    44 1   
@<TRIPOS>SUBSTRUCTURE
     1 RM0         1 TEMP              0 ****  ****    0 ROOT
