@<TRIPOS>MOLECULE
RM1
   24    25     1     0     0
SMALL
bcc


@<TRIPOS>ATOM
      1 C10         -2.9010     1.5750    -0.2420 c3         1 RM1       0.158100
      2 N10         -2.3780     0.4070     0.4390 n7         1 RM1      -0.817200
      3 C9          -1.3470    -0.3230    -0.2620 c5         1 RM1       0.222800
      4 C8           0.0890     0.1620    -0.1470 ca         1 RM1      -0.127300
      5 C7           0.5830     1.4570    -0.0840 ca         1 RM1      -0.115000
      6 C6           1.9550     1.6550     0.0400 ca         1 RM1      -0.132000
      7 C5           2.8220     0.5700     0.0940 ca         1 RM1      -0.127000
      8 C4           2.3260    -0.7290     0.0310 ca         1 RM1      -0.117000
      9 C3           0.9590    -0.9240    -0.0860 ca         1 RM1      -0.081300
     10 C2           0.1910    -2.2160    -0.1540 c5         1 RM1      -0.036100
     11 C1          -1.2280    -1.7780     0.2250 c5         1 RM1      -0.073400
     12 H101        -3.3430     1.2760    -1.1940 h1         1 RM1       0.028033
     13 H102        -3.6950     2.0170     0.3590 h1         1 RM1       0.028033
     14 H103        -2.1720     2.3660    -0.4560 h1         1 RM1       0.028033
     15 H10         -2.0580     0.6530     1.3670 hn         1 RM1       0.363800
     16 H9          -1.6250    -0.3310    -1.3240 h1         1 RM1       0.065700
     17 H7          -0.0820     2.3110    -0.1220 ha         1 RM1       0.129000
     18 H6           2.3490     2.6620     0.0980 ha         1 RM1       0.129000
     19 H5           3.8870     0.7350     0.1930 ha         1 RM1       0.129000
     20 H4           3.0030    -1.5740     0.0850 ha         1 RM1       0.131000
     21 H2C1         0.5940    -2.9910     0.5000 hc         1 RM1       0.053700
     22 H2C2         0.2140    -2.6160    -1.1720 hc         1 RM1       0.053700
     23 H1C1        -1.3350    -1.7910     1.3130 hc         1 RM1       0.053200
     24 H1C2        -2.0060    -2.4180    -0.1910 hc         1 RM1       0.053200
@<TRIPOS>BOND
     1     1     2 1   
     2     1    12 1   
     3     1    13 1   
     4     1    14 1   
     5     2     3 1   
     6     2    15 1   
     7     3     4 1   
     8     3    11 1   
     9     3    16 1   
    10     4     5 ar  
    11     4     9 ar  
    12     5     6 ar  
    13     5    17 1   
    14     6     7 ar  
    15     6    18 1   
    16     7     8 ar  
    17     7    19 1   
    18     8     9 ar  
    19     8    20 1   
    20     9    10 1   
    21    10    11 1   
    22    10    21 1   
    23    10    22 1   
    24    11    23 1   
    25    11    24 1   
@<TRIPOS>SUBSTRUCTURE
     1 RM1         1 TEMP              0 ****  ****    0 ROOT
