@<TRIPOS>MOLECULE
RM1
   24    25     1     0     0
SMALL
No Charge or Current Charge


@<TRIPOS>ATOM
      1 C10         -2.9720     1.6060    -0.1460 c3         1 RM1       0.158100
      2 N10         -2.3520     0.3990     0.4370 n7         1 RM1      -0.872400
      3 C9          -1.3440    -0.3070    -0.3930 c5         1 RM1       0.222800
      4 C8           0.0880     0.1470    -0.1990 ca         1 RM1      -0.127300
      5 C7           0.5890     1.4630    -0.1860 ca         1 RM1      -0.097000
      6 C6           1.9710     1.6690    -0.0110 ca         1 RM1      -0.114000
      7 C5           2.8400     0.5690     0.1400 ca         1 RM1      -0.109000
      8 C4           2.3280    -0.7410     0.1120 ca         1 RM1      -0.099000
      9 C3           0.9470    -0.9290    -0.0590 ca         1 RM1      -0.081300
     10 C2           0.2270    -2.2490    -0.1330 c5         1 RM1      -0.036100
     11 C1          -1.2460    -1.7820     0.1610 c5         1 RM1      -0.073400
     12 H101        -3.4490     1.3720    -1.1070 h1         1 RM1       0.028033
     13 H102        -3.7450     2.0020     0.5270 h1         1 RM1       0.028033
     14 H103        -2.2350     2.4000    -0.3140 h1         1 RM1       0.028033
     15 H10         -1.9230     0.6420     1.3380 hn         1 RM1       0.419000
     16 H9          -1.6130    -0.3100    -1.4600 h1         1 RM1       0.065700
     17 H7          -0.0710     2.3150    -0.3120 ha         1 RM1       0.111000
     18 H6           2.3700     2.6810     0.0040 ha         1 RM1       0.111000
     19 H5           3.9070     0.7330     0.2720 ha         1 RM1       0.111000
     20 H4           2.9930    -1.5960     0.2190 ha         1 RM1       0.113000
     21 H2C1         0.5860    -2.9790     0.6000 hc         1 RM1       0.053700
     22 H2C2         0.3190    -2.6990    -1.1290 hc         1 RM1       0.053700
     23 H1C1        -1.4230    -1.8090     1.2430 hc         1 RM1       0.053200
     24 H1C2        -1.9910    -2.4450    -0.2940 hc         1 RM1       0.053200
@<TRIPOS>BOND
     1     1     2 1   
     2     1    12 1   
     3     1    13 1   
     4     1    14 1   
     5     2     3 1   
     6     2    15 1   
     7     3     4 1   
     8     3    11 1   
     9     3    16 1   
    10     4     5 ar  
    11     4     9 ar  
    12     5     6 ar  
    13     5    17 1   
    14     6     7 ar  
    15     6    18 1   
    16     7     8 ar  
    17     7    19 1   
    18     8     9 ar  
    19     8    20 1   
    20     9    10 1   
    21    10    11 1   
    22    10    21 1   
    23    10    22 1   
    24    11    23 1   
    25    11    24 1   
@<TRIPOS>SUBSTRUCTURE
     1 RM1         1 TEMP              0 ****  ****    0 ROOT
