@<TRIPOS>MOLECULE
RM2
   27    28     1     0     0
SMALL
No Charge or Current Charge


@<TRIPOS>ATOM
      1 C13         54.3840   151.2110    22.2930 c2         1 RM2      -0.289000
      2 C12         54.6700   152.2550    23.1070 ce         1 RM2      -0.279600
      3 C11         53.6630   153.0840    23.7780 ce         1 RM2       0.460500
      4 N10         54.0770   154.0460    24.5410 n2         1 RM2      -0.574900
      5 C9          52.9110   154.7710    25.1200 c5         1 RM2       0.155800
      6 C1          53.4190   156.2060    25.5360 c5         1 RM2      -0.073400
      7 C2          52.4990   156.6460    26.7350 c5         1 RM2      -0.018100
      8 C3          52.1850   155.3030    27.3450 ca         1 RM2      -0.111300
      9 C8          52.4170   154.2670    26.4580 ca         1 RM2      -0.047300
     10 C7          52.1660   152.9340    26.8300 ca         1 RM2      -0.120000
     11 C4          51.6980   155.0500    28.6400 ca         1 RM2       0.142100
     12 C5          51.4510   153.7210    29.0290 ca         1 RM2      -0.196000
     13 C6          51.6840   152.6630    28.1260 ca         1 RM2      -0.075000
     14 O4          51.4650   156.0740    29.5090 oh         1 RM2      -0.539100
     15 H131        55.1720   150.6240    21.8170 ha         1 RM2       0.166000
     16 H132        53.3570   150.9100    22.0770 ha         1 RM2       0.166000
     17 H12         55.7070   152.5310    23.3040 ha         1 RM2       0.193000
     18 H11         52.6070   152.8460    23.6220 h4         1 RM2      -0.037200
     19 H9          52.0740   154.8510    24.4100 h1         1 RM2       0.040700
     20 H1C1        53.3880   156.9160    24.7020 hc         1 RM2       0.057200
     21 H1C2        54.4610   156.1670    25.8760 hc         1 RM2       0.057200
     22 H2C1        51.5900   157.1500    26.3860 hc         1 RM2       0.057700
     23 H2C2        53.0150   157.3260    27.4230 hc         1 RM2       0.057700
     24 H7          52.3400   152.1200    26.1320 ha         1 RM2       0.121000
     25 H5          51.0750   153.5000    30.0260 ha         1 RM2       0.112000
     26 H6          51.4880   151.6360    28.4270 ha         1 RM2       0.113000
     27 H4          51.1310   155.6950    30.3490 ho         1 RM2       0.461000
@<TRIPOS>BOND
     1     1     2 2   
     2     1    15 1   
     3     1    16 1   
     4     2     3 1   
     5     2    17 1   
     6     3     4 2   
     7     3    18 1   
     8     4     5 1   
     9     5     6 1   
    10     5     9 1   
    11     5    19 1   
    12     6     7 1   
    13     6    20 1   
    14     6    21 1   
    15     7     8 1   
    16     7    22 1   
    17     7    23 1   
    18     8     9 ar  
    19     8    11 ar  
    20     9    10 ar  
    21    10    13 ar  
    22    10    24 1   
    23    11    12 ar  
    24    11    14 1   
    25    12    13 ar  
    26    12    25 1   
    27    13    26 1   
    28    14    27 1   
@<TRIPOS>SUBSTRUCTURE
     1 RM2         1 TEMP              0 ****  ****    0 ROOT
