@<TRIPOS>MOLECULE
RM2
   27    28     1     0     0
SMALL
abcg2


@<TRIPOS>ATOM
      1 C13         54.5100   151.4990    21.9690 c2         1 RM2      -0.289000
      2 C12         54.7310   152.1930    23.0860 ce         1 RM2      -0.279600
      3 C11         53.7290   153.0750    23.6670 ce         1 RM2       0.460500
      4 N10         53.9430   153.7310    24.7370 n2         1 RM2      -0.574900
      5 C9          52.8740   154.5750    25.2380 c5         1 RM2       0.155800
      6 C1          53.3370   156.0300    25.4740 c5         1 RM2      -0.073400
      7 C2          52.4990   156.5440    26.6640 c5         1 RM2      -0.018100
      8 C3          52.1640   155.2750    27.4040 ca         1 RM2      -0.111300
      9 C8          52.3910   154.1530    26.6130 ca         1 RM2      -0.047300
     10 C7          52.1480   152.8680    27.0800 ca         1 RM2      -0.120000
     11 C4          51.6720   155.1180    28.6960 ca         1 RM2       0.142100
     12 C5          51.4270   153.8330    29.1830 ca         1 RM2      -0.196000
     13 C6          51.6660   152.7210    28.3790 ca         1 RM2      -0.075000
     14 O4          51.4540   156.2430    29.4430 oh         1 RM2      -0.539100
     15 H131        55.2620   150.8450    21.5470 ha         1 RM2       0.166000
     16 H132        53.5630   151.5690    21.4450 ha         1 RM2       0.166000
     17 H12         55.6780   152.1240    23.6120 ha         1 RM2       0.193000
     18 H11         52.7730   153.1450    23.1330 h4         1 RM2      -0.037200
     19 H9          52.0180   154.5640    24.5470 h1         1 RM2       0.040700
     20 H1C1        53.2390   156.6430    24.5790 hc         1 RM2       0.057200
     21 H1C2        54.3930   156.0050    25.7540 hc         1 RM2       0.057200
     22 H2C1        51.5840   157.0390    26.3200 hc         1 RM2       0.057700
     23 H2C2        53.0390   157.2660    27.2780 hc         1 RM2       0.057700
     24 H7          52.3360   152.0040    26.4560 ha         1 RM2       0.121000
     25 H5          51.0520   153.7080    30.1930 ha         1 RM2       0.112000
     26 H6          51.4720   151.7320    28.7760 ha         1 RM2       0.113000
     27 H4          51.1400   155.9980    30.3240 ho         1 RM2       0.461000
@<TRIPOS>BOND
     1     1     2 2   
     2     1    15 1   
     3     1    16 1   
     4     2     3 1   
     5     2    17 1   
     6     3     4 2   
     7     3    18 1   
     8     4     5 1   
     9     5     6 1   
    10     5     9 1   
    11     5    19 1   
    12     6     7 1   
    13     6    20 1   
    14     6    21 1   
    15     7     8 1   
    16     7    22 1   
    17     7    23 1   
    18     8     9 ar  
    19     8    11 ar  
    20     9    10 ar  
    21    10    13 ar  
    22    10    24 1   
    23    11    12 ar  
    24    11    14 1   
    25    12    13 ar  
    26    12    25 1   
    27    13    26 1   
    28    14    27 1   
@<TRIPOS>SUBSTRUCTURE
     1 RM2         1 TEMP              0 ****  ****    0 ROOT
