@<TRIPOS>MOLECULE
RM3
   42    44     1     0     0
SMALL
abcg2


@<TRIPOS>ATOM
      1 N1         -20.4180     5.0770    26.9640 ns         1 RM3      -0.166000
      2 C4         -19.3700     7.6480    25.9360 ca         1 RM3      -0.047000
      3 C5         -18.5820     6.4860    26.1000 ca         1 RM3      -0.047000
      4 C6         -19.0590     5.2430    26.5810 ca         1 RM3      -0.060000
      5 C7         -20.9760     5.6590    28.0570 c          1 RM3       0.598100
      6 C8         -22.4090     5.2320    28.3530 c3         1 RM3      -0.111100
      7 C10        -22.6670     4.8560    30.8400 ca         1 RM3      -0.085000
      8 C13        -22.1850     2.1550    30.5470 ca         1 RM3       0.126000
      9 C15        -18.2060     4.1690    26.6540 ca         1 RM3       0.286900
     10 C17        -17.2090     6.5620    25.7380 ca         1 RM3      -0.037000
     11 CL         -21.8790     0.4390    30.3520 cl         1 RM3      -0.212000
     12 C12        -22.4070     2.6630    31.8200 ca         1 RM3      -0.096000
     13 C11        -22.6500     4.0250    31.9550 ca         1 RM3      -0.099000
     14 C14        -22.1980     2.9680    29.4240 ca         1 RM3      -0.101000
     15 C9         -22.4430     4.3340    29.5670 ca         1 RM3      -0.074300
     16 O          -20.3810     6.4560    28.7710 o          1 RM3      -0.572100
     17 N2         -16.9000     4.2320    26.2940 nb         1 RM3      -0.647000
     18 C16        -16.4300     5.3830    25.8670 ca         1 RM3       0.339900
     19 C3         -18.8250     8.8060    25.4600 ca         1 RM3      -0.148000
     20 C18        -16.6560     7.7650    25.2600 ca         1 RM3      -0.193000
     21 C2         -17.4420     8.9040    25.1000 ca         1 RM3       0.335000
     22 N          -16.9440    10.0810    24.5980 nh         1 RM3      -0.823400
     23 C1         -15.5220    10.1910    24.3240 c3         1 RM3       0.210100
     24 C          -17.6860    11.3210    24.7890 c3         1 RM3       0.210100
     25 H1         -20.9360     4.3370    26.5130 hn         1 RM3       0.153000
     26 H2         -20.4200     7.6230    26.1910 ha         1 RM3       0.120000
     27 H3         -22.9790     6.1410    28.5450 hc         1 RM3       0.069700
     28 H4         -22.8450     4.7260    27.4930 hc         1 RM3       0.069700
     29 H5         -22.8560     5.9150    30.9570 ha         1 RM3       0.125000
     30 H6         -18.5690     3.2140    27.0140 h4         1 RM3       0.020100
     31 H7         -22.3980     2.0090    32.6810 ha         1 RM3       0.132000
     32 H8         -22.8290     4.4380    32.9400 ha         1 RM3       0.122000
     33 H9         -22.0220     2.5430    28.4440 ha         1 RM3       0.122000
     34 H10        -15.3780     5.4190    25.5940 h4         1 RM3       0.018100
     35 H11        -19.4650     9.6680    25.3480 ha         1 RM3       0.114000
     36 H12        -15.6030     7.7760    25.0220 ha         1 RM3       0.117000
     37 H13        -15.3380    11.1140    23.7790 h1         1 RM3       0.038200
     38 H14        -14.9170    10.1980    25.2400 h1         1 RM3       0.038200
     39 H15        -15.1880     9.3610    23.7010 h1         1 RM3       0.038200
     40 H16        -17.9010    11.5120    25.8470 h1         1 RM3       0.038200
     41 H17        -17.0890    12.1440    24.4060 h1         1 RM3       0.038200
     42 H18        -18.6310    11.3100    24.2430 h1         1 RM3       0.038200
@<TRIPOS>BOND
     1     1     4 1   
     2     1     5 1   
     3     1    25 1   
     4     2     3 ar  
     5     2    19 ar  
     6     2    26 1   
     7     3     4 ar  
     8     3    10 ar  
     9     4     9 ar  
    10     5     6 1   
    11     5    16 2   
    12     6    15 1   
    13     6    27 1   
    14     6    28 1   
    15     7    13 ar  
    16     7    15 ar  
    17     7    29 1   
    18     8    11 1   
    19     8    12 ar  
    20     8    14 ar  
    21     9    17 ar  
    22     9    30 1   
    23    10    18 ar  
    24    10    20 ar  
    25    12    13 ar  
    26    12    31 1   
    27    13    32 1   
    28    14    15 ar  
    29    14    33 1   
    30    17    18 ar  
    31    18    34 1   
    32    19    21 ar  
    33    19    35 1   
    34    20    21 ar  
    35    20    36 1   
    36    21    22 1   
    37    22    23 1   
    38    22    24 1   
    39    23    37 1   
    40    23    38 1   
    41    23    39 1   
    42    24    40 1   
    43    24    41 1   
    44    24    42 1   
@<TRIPOS>SUBSTRUCTURE
     1 RM3         1 TEMP              0 ****  ****    0 ROOT
