@<TRIPOS>MOLECULE
RM3
   42    44     1     0     0
SMALL
No Charge or Current Charge


@<TRIPOS>ATOM
      1 N1         -20.2590     5.0320    27.1550 ns         1 RM3      -0.166000
      2 C4         -19.3000     7.6230    26.0440 ca         1 RM3      -0.047000
      3 C5         -18.4650     6.4970    26.2090 ca         1 RM3      -0.047000
      4 C6         -18.9270     5.2530    26.7120 ca         1 RM3      -0.060000
      5 C7         -20.9970     5.7070    28.1150 c          1 RM3       0.598100
      6 C8         -22.4240     5.1820    28.3150 c3         1 RM3      -0.111100
      7 C10        -22.7630     4.8220    30.8130 ca         1 RM3      -0.085000
      8 C13        -22.3550     2.0570    30.5440 ca         1 RM3       0.126000
      9 C15        -18.0200     4.1730    26.7680 ca         1 RM3       0.286900
     10 C17        -17.1090     6.5930    25.8290 ca         1 RM3      -0.037000
     11 Cl         -22.0960     0.3260    30.3730 cl         1 RM3      -0.212000
     12 C12        -22.6210     2.6040    31.8090 ca         1 RM3      -0.096000
     13 C11        -22.8250     3.9880    31.9440 ca         1 RM3      -0.099000
     14 C14        -22.2930     2.8880    29.4130 ca         1 RM3      -0.101000
     15 C9         -22.4980     4.2770    29.5400 ca         1 RM3      -0.074300
     16 O          -20.5430     6.6320    28.7790 o          1 RM3      -0.572100
     17 N2         -16.7210     4.2610    26.4030 nb         1 RM3      -0.647000
     18 C16        -16.2800     5.4580    25.9500 ca         1 RM3       0.339900
     19 C3         -18.7770     8.8260    25.5410 ca         1 RM3      -0.148000
     20 C18        -16.5930     7.8040    25.3270 ca         1 RM3      -0.193000
     21 C2         -17.4190     8.9340    25.1820 ca         1 RM3       0.335000
     22 N          -16.8950    10.1520    24.6750 nh         1 RM3      -0.823400
     23 C1         -15.7480    10.1720    23.7370 c3         1 RM3       0.210100
     24 C          -17.4760    11.4620    25.0550 c3         1 RM3       0.210100
     25 H1         -20.7260     4.2430    26.7260 hn         1 RM3       0.153000
     26 H2         -20.3570     7.5800    26.2870 ha         1 RM3       0.120000
     27 H3         -23.0960     6.0380    28.4490 hc         1 RM3       0.069700
     28 H4         -22.7350     4.6140    27.4310 hc         1 RM3       0.069700
     29 H5         -22.9190     5.8930    30.9270 ha         1 RM3       0.125000
     30 H6         -18.3450     3.2000    27.1380 h4         1 RM3       0.020100
     31 H7         -22.6680     1.9580    32.6820 ha         1 RM3       0.132000
     32 H8         -23.0300     4.4150    32.9230 ha         1 RM3       0.122000
     33 H9         -22.0850     2.4500    28.4400 ha         1 RM3       0.122000
     34 H10        -15.2300     5.5030    25.6630 h4         1 RM3       0.018100
     35 H11        -19.4440     9.6740    25.4170 ha         1 RM3       0.114000
     36 H12        -15.5430     7.8600    25.0580 ha         1 RM3       0.117000
     37 H13        -15.7610    11.0830    23.1220 h1         1 RM3       0.038200
     38 H14        -14.7980    10.1390    24.2880 h1         1 RM3       0.038200
     39 H15        -15.7910     9.3130    23.0550 h1         1 RM3       0.038200
     40 H16        -17.8190    11.4450    26.0990 h1         1 RM3       0.038200
     41 H17        -16.7290    12.2620    24.9660 h1         1 RM3       0.038200
     42 H18        -18.3290    11.7090    24.4080 h1         1 RM3       0.038200
@<TRIPOS>BOND
     1     1     4 1   
     2     1     5 1   
     3     1    25 1   
     4     2     3 ar  
     5     2    19 ar  
     6     2    26 1   
     7     3     4 ar  
     8     3    10 ar  
     9     4     9 ar  
    10     5     6 1   
    11     5    16 2   
    12     6    15 1   
    13     6    27 1   
    14     6    28 1   
    15     7    13 ar  
    16     7    15 ar  
    17     7    29 1   
    18     8    11 1   
    19     8    12 ar  
    20     8    14 ar  
    21     9    17 ar  
    22     9    30 1   
    23    10    18 ar  
    24    10    20 ar  
    25    12    13 ar  
    26    12    31 1   
    27    13    32 1   
    28    14    15 ar  
    29    14    33 1   
    30    17    18 ar  
    31    18    34 1   
    32    19    21 ar  
    33    19    35 1   
    34    20    21 ar  
    35    20    36 1   
    36    21    22 1   
    37    22    23 1   
    38    22    24 1   
    39    23    37 1   
    40    23    38 1   
    41    23    39 1   
    42    24    40 1   
    43    24    41 1   
    44    24    42 1   
@<TRIPOS>SUBSTRUCTURE
     1 RM3         1 TEMP              0 ****  ****    0 ROOT
