@<TRIPOS>MOLECULE
RM4
   23    23     1     0     0
SMALL
No Charge or Current Charge


@<TRIPOS>ATOM
      1 C1           1.4470    -0.3830    -0.7110 c6         1 RM4       0.361300
      2 C2           0.9690     1.0640    -0.3430 c6         1 RM4       0.118300
      3 C3          -0.5670     1.1520    -0.5780 c6         1 RM4       0.183300
      4 C4          -1.3140     0.0030     0.1740 c6         1 RM4       0.145300
      5 C5          -0.6840    -1.3760    -0.2080 c6         1 RM4       0.150300
      6 C6          -1.2690    -2.5570     0.6060 c3         1 RM4      -0.089100
      7 O1           2.8040    -0.5640    -0.3510 oh         1 RM4      -0.709000
      8 O2           1.2750     1.3910     1.0340 oh         1 RM4      -0.693000
      9 O3          -1.0470     2.4330    -0.1360 oh         1 RM4      -0.684000
     10 O4          -2.7260     0.0540    -0.1220 oh         1 RM4      -0.709000
     11 O5           0.7380    -1.3620     0.0520 os         1 RM4      -0.478000
     12 H1           1.3090    -0.5760    -1.7860 h2         1 RM4       0.019700
     13 H2           1.4710     1.7740    -1.0180 h1         1 RM4       0.037700
     14 H3          -0.7550     1.0370    -1.6570 h1         1 RM4       0.036700
     15 H4          -1.1580     0.1470     1.2540 h1         1 RM4       0.075700
     16 H5          -0.8460    -1.5750    -1.2790 h1         1 RM4       0.038700
     17 H6          -2.3420    -2.6770     0.4140 hc         1 RM4       0.047367
     18 H6A         -0.7790    -3.5000     0.3360 hc         1 RM4       0.047367
     19 H6B         -1.1360    -2.4030     1.6830 hc         1 RM4       0.047367
     20 HO1          2.8760    -1.5350    -0.2130 ho         1 RM4       0.525000
     21 HO2          2.0750     0.8490     1.2410 ho         1 RM4       0.519000
     22 HO3         -0.4270     2.6760     0.5950 ho         1 RM4       0.502000
     23 HO4         -2.9560     1.0140    -0.1230 ho         1 RM4       0.507000
@<TRIPOS>BOND
     1     1     2 1   
     2     1     7 1   
     3     1    11 1   
     4     1    12 1   
     5     2     3 1   
     6     2     8 1   
     7     2    13 1   
     8     3     4 1   
     9     3     9 1   
    10     3    14 1   
    11     4     5 1   
    12     4    10 1   
    13     4    15 1   
    14     5     6 1   
    15     5    11 1   
    16     5    16 1   
    17     6    17 1   
    18     6    18 1   
    19     6    19 1   
    20     7    20 1   
    21     8    21 1   
    22     9    22 1   
    23    10    23 1   
@<TRIPOS>SUBSTRUCTURE
     1 RM4         1 TEMP              0 ****  ****    0 ROOT
