@<TRIPOS>MOLECULE
RM4
   23    23     1     0     0
SMALL
bcc


@<TRIPOS>ATOM
      1 C1           1.4510    -0.4620    -0.5390 c6         1 RM4       0.314900
      2 C2           1.0580     0.9600    -0.1480 c6         1 RM4       0.095100
      3 C3          -0.4200     1.1650    -0.4740 c6         1 RM4       0.160100
      4 C4          -1.2680     0.0860     0.1860 c6         1 RM4       0.122100
      5 C5          -0.7200    -1.2980    -0.1970 c6         1 RM4       0.127100
      6 C6          -1.4480    -2.4250     0.5050 c3         1 RM4      -0.089100
      7 O1           2.7670    -0.6680    -0.1720 oh         1 RM4      -0.586800
      8 O2           1.2560     1.2000     1.2210 oh         1 RM4      -0.570800
      9 O3          -0.8880     2.4230    -0.0660 oh         1 RM4      -0.561800
     10 O4          -2.5930     0.2380    -0.2670 oh         1 RM4      -0.586800
     11 O5           0.6500    -1.3970     0.1380 os         1 RM4      -0.431600
     12 H1           1.3100    -0.5800    -1.6280 h2         1 RM4       0.019700
     13 H2           1.6500     1.6550    -0.7660 h1         1 RM4       0.037700
     14 H3          -0.5220     1.0440    -1.5650 h1         1 RM4       0.036700
     15 H4          -1.2080     0.1950     1.2780 h1         1 RM4       0.075700
     16 H5          -0.8460    -1.4150    -1.2870 h1         1 RM4       0.038700
     17 H6          -2.5070    -2.4230     0.2470 hc         1 RM4       0.047367
     18 H6A         -1.0460    -3.3930     0.2060 hc         1 RM4       0.047367
     19 H6B         -1.3610    -2.3360     1.5890 hc         1 RM4       0.047367
     20 HO1          3.0940    -1.4760    -0.5820 ho         1 RM4       0.426000
     21 HO2          2.1890     1.0710     1.4200 ho         1 RM4       0.420000
     22 HO3         -0.4570     3.0950    -0.6030 ho         1 RM4       0.403000
     23 HO4         -3.1850    -0.1740     0.3680 ho         1 RM4       0.408000
@<TRIPOS>BOND
     1     1     2 1   
     2     1     7 1   
     3     1    11 1   
     4     1    12 1   
     5     2     3 1   
     6     2     8 1   
     7     2    13 1   
     8     3     4 1   
     9     3     9 1   
    10     3    14 1   
    11     4     5 1   
    12     4    10 1   
    13     4    15 1   
    14     5     6 1   
    15     5    11 1   
    16     5    16 1   
    17     6    17 1   
    18     6    18 1   
    19     6    19 1   
    20     7    20 1   
    21     8    21 1   
    22     9    22 1   
    23    10    23 1   
@<TRIPOS>SUBSTRUCTURE
     1 RM4         1 TEMP              0 ****  ****    0 ROOT
