@<TRIPOS>MOLECULE
RM5
   56    57     1     0     0
SMALL
No Charge or Current Charge


@<TRIPOS>ATOM
      1 C1          15.4010    38.9180   125.3630 cc         1 RM5       0.180900
      2 C2          14.6790    38.3440   124.3430 cd         1 RM5      -0.220300
      3 C3          13.9770    37.2610   124.9260 cd         1 RM5       0.005000
      4 C13         15.1060    37.6130   121.9740 c3         1 RM5      -0.101600
      5 C14         15.9910    34.6950   126.8460 c          1 RM5       0.673100
      6 C17         18.3670    33.8970   126.6210 ca         1 RM5      -0.049000
      7 C18         19.0740    34.7640   125.7400 ca         1 RM5      -0.046800
      8 C19         20.1700    34.2520   125.0160 ca         1 RM5      -0.102000
      9 C20         20.5680    32.9200   125.1670 ca         1 RM5       0.130000
     10 C21         19.8850    32.0750   126.0490 ca         1 RM5      -0.102000
     11 C22         18.7840    32.5490   126.7920 ca         1 RM5      -0.046800
     12 C24         18.7030    36.2520   125.5620 c3         1 RM5      -0.016400
     13 C25         19.8820    37.1820   125.9290 c3         1 RM5      -0.087850
     14 C26         18.1820    36.5370   124.1370 c3         1 RM5      -0.087850
     15 C27         18.0550    31.5750   127.7390 c3         1 RM5      -0.016400
     16 C28         17.3230    30.4730   126.9430 c3         1 RM5      -0.087850
     17 C29         19.0110    30.9760   128.7960 c3         1 RM5      -0.087850
     18 C4          14.2890    37.2300   126.2570 cc         1 RM5      -0.131100
     19 O5          15.1720    38.2500   126.5450 os         1 RM5      -0.199000
     20 C6          14.6210    38.7560   122.8900 c3         1 RM5       0.260300
     21 O7          13.2620    39.0210   122.5630 oh         1 RM5      -0.651000
     22 C8          15.4270    40.0460   122.6160 c3         1 RM5      -0.101600
     23 S9          13.7340    36.0430   127.5010 sy         1 RM5       1.173900
     24 N10         15.2040    35.2900   127.7730 ns         1 RM5      -0.595300
     25 O11         13.4070    36.7460   128.7470 o          1 RM5      -0.514000
     26 O12         12.8290    35.0680   126.8790 o          1 RM5      -0.514000
     27 N15         17.2400    34.3760   127.3340 ns         1 RM5      -0.175000
     28 O16         15.6400    34.4800   125.6970 o          1 RM5      -0.583100
     29 Cl1         21.9360    32.3050   124.2480 cl         1 RM5      -0.201000
     30 H1          16.0780    39.7610   125.3900 h4         1 RM5       0.057100
     31 H2          13.3120    36.5710   124.4120 ha         1 RM5       0.176000
     32 H3          16.1580    37.3790   122.1700 hc         1 RM5       0.046033
     33 H4          14.5180    36.7010   122.1340 hc         1 RM5       0.046033
     34 H5          15.0140    37.8930   120.9180 hc         1 RM5       0.046033
     35 H6          20.7220    34.8880   124.3290 ha         1 RM5       0.134000
     36 H7          20.2140    31.0450   126.1460 ha         1 RM5       0.134000
     37 H8          17.8950    36.5340   126.2440 hc         1 RM5       0.048200
     38 H9          20.2380    36.9670   126.9440 hc         1 RM5       0.039283
     39 H10         20.7230    37.0600   125.2360 hc         1 RM5       0.039283
     40 H11         19.5670    38.2320   125.8970 hc         1 RM5       0.039283
     41 H12         17.8640    37.5820   124.0450 hc         1 RM5       0.039283
     42 H13         18.9560    36.3480   123.3850 hc         1 RM5       0.039283
     43 H14         17.3200    35.8990   123.9100 hc         1 RM5       0.039283
     44 H15         17.2810    32.1000   128.3100 hc         1 RM5       0.048200
     45 H16         16.7500    29.8240   127.6160 hc         1 RM5       0.039283
     46 H17         16.6230    30.9200   126.2260 hc         1 RM5       0.039283
     47 H18         18.0310    29.8480   126.3860 hc         1 RM5       0.039283
     48 H19         18.4520    30.3700   129.5200 hc         1 RM5       0.039283
     49 H20         19.7710    30.3340   128.3340 hc         1 RM5       0.039283
     50 H21         19.5230    31.7740   129.3460 hc         1 RM5       0.039283
     51 H22         12.9230    39.6150   123.2660 ho         1 RM5       0.445000
     52 H23         15.0690    40.8750   123.2370 hc         1 RM5       0.046033
     53 H24         16.4910    39.8910   122.8310 hc         1 RM5       0.046033
     54 H25         15.3360    40.3470   121.5650 hc         1 RM5       0.046033
     55 H26         15.5650    35.5010   128.6870 hn         1 RM5       0.340500
     56 H27         17.3950    34.5570   128.3170 hn         1 RM5       0.163000
@<TRIPOS>BOND
     1     1     2 2   
     2     1    19 1   
     3     1    30 1   
     4     2     3 1   
     5     2    20 1   
     6     3    18 2   
     7     3    31 1   
     8     4    20 1   
     9     4    32 1   
    10     4    33 1   
    11     4    34 1   
    12     5    24 1   
    13     5    27 1   
    14     5    28 2   
    15     6     7 ar  
    16     6    11 ar  
    17     6    27 1   
    18     7     8 ar  
    19     7    12 1   
    20     8     9 ar  
    21     8    35 1   
    22     9    10 ar  
    23     9    29 1   
    24    10    11 ar  
    25    10    36 1   
    26    11    15 1   
    27    12    13 1   
    28    12    14 1   
    29    12    37 1   
    30    13    38 1   
    31    13    39 1   
    32    13    40 1   
    33    14    41 1   
    34    14    42 1   
    35    14    43 1   
    36    15    16 1   
    37    15    17 1   
    38    15    44 1   
    39    16    45 1   
    40    16    46 1   
    41    16    47 1   
    42    17    48 1   
    43    17    49 1   
    44    17    50 1   
    45    18    19 1   
    46    18    23 1   
    47    20    21 1   
    48    20    22 1   
    49    21    51 1   
    50    22    52 1   
    51    22    53 1   
    52    22    54 1   
    53    23    24 1   
    54    23    25 2   
    55    23    26 2   
    56    24    55 1   
    57    27    56 1   
@<TRIPOS>SUBSTRUCTURE
     1 RM5         1 TEMP              0 ****  ****    0 ROOT
