@<TRIPOS>MOLECULE
RM5
   56    57     1     0     0
SMALL
abcg2


@<TRIPOS>ATOM
      1 C1          15.2210    38.7710   125.3630 cc         1 RM5       0.180900
      2 C2          14.6020    38.2450   124.2750 cd         1 RM5      -0.220300
      3 C3          13.9730    37.0470   124.7320 cd         1 RM5       0.005000
      4 C13         15.3450    37.8510   121.9450 c3         1 RM5      -0.101600
      5 C14         16.1980    34.6390   126.9510 c          1 RM5       0.673100
      6 C17         18.4830    33.9540   126.6960 ca         1 RM5      -0.049000
      7 C18         19.1480    34.7550   125.7610 ca         1 RM5      -0.046800
      8 C19         20.1320    34.1710   124.9690 ca         1 RM5      -0.102000
      9 C20         20.4390    32.8330   125.1270 ca         1 RM5       0.130000
     10 C21         19.8050    32.0510   126.0750 ca         1 RM5      -0.102000
     11 C22         18.8160    32.6060   126.8800 ca         1 RM5      -0.046800
     12 C24         18.8430    36.2260   125.5810 c3         1 RM5      -0.016400
     13 C25         20.0800    37.0810   125.8630 c3         1 RM5      -0.087850
     14 C26         18.2830    36.5130   124.1890 c3         1 RM5      -0.087850
     15 C27         18.0990    31.7430   127.8950 c3         1 RM5      -0.016400
     16 C28         17.0160    30.9080   127.2090 c3         1 RM5      -0.087850
     17 C29         19.0560    30.8520   128.6850 c3         1 RM5      -0.087850
     18 C4          14.2660    36.9680   126.0490 cc         1 RM5      -0.131100
     19 O5          15.0230    38.0030   126.4510 os         1 RM5      -0.199000
     20 C6          14.5550    38.7760   122.8640 c3         1 RM5       0.260300
     21 O7          13.2160    38.7410   122.4020 oh         1 RM5      -0.651000
     22 C8          15.1160    40.1940   122.7930 c3         1 RM5      -0.101600
     23 S9          13.8110    35.7960   127.2530 sy         1 RM5       1.173900
     24 N10         15.2660    35.2120   127.8150 ns         1 RM5      -0.595300
     25 O11         13.2350    36.4720   128.3950 o          1 RM5      -0.514000
     26 O12         13.0770    34.7590   126.5670 o          1 RM5      -0.514000
     27 N15         17.4350    34.5140   127.4730 ns         1 RM5      -0.175000
     28 O16         15.8900    34.2990   125.8280 o          1 RM5      -0.583100
     29 CL1         21.6540    32.1180   124.1150 cl         1 RM5      -0.201000
     30 H1          15.8210    39.6560   125.5090 h4         1 RM5       0.057100
     31 H2          13.3880    36.3490   124.1560 ha         1 RM5       0.176000
     32 H3          16.3910    37.8210   122.2460 hc         1 RM5       0.046033
     33 H4          14.9570    36.8320   121.9760 hc         1 RM5       0.046033
     34 H5          15.2980    38.2060   120.9140 hc         1 RM5       0.046033
     35 H6          20.6570    34.7620   124.2290 ha         1 RM5       0.134000
     36 H7          20.0760    31.0090   126.1790 ha         1 RM5       0.134000
     37 H8          18.0820    36.5130   126.3090 hc         1 RM5       0.048200
     38 H9          20.4700    36.8990   126.8650 hc         1 RM5       0.039283
     39 H10         20.8810    36.8800   125.1500 hc         1 RM5       0.039283
     40 H11         19.8290    38.1400   125.7870 hc         1 RM5       0.039283
     41 H12         18.0180    37.5680   124.0990 hc         1 RM5       0.039283
     42 H13         19.0130    36.2890   123.4090 hc         1 RM5       0.039283
     43 H14         17.3860    35.9270   123.9900 hc         1 RM5       0.039283
     44 H15         17.6060    32.4030   128.6110 hc         1 RM5       0.048200
     45 H16         16.4620    30.3220   127.9440 hc         1 RM5       0.039283
     46 H17         16.3030    31.5350   126.6740 hc         1 RM5       0.039283
     47 H18         17.4580    30.2150   126.4920 hc         1 RM5       0.039283
     48 H19         18.5130    30.3410   129.4810 hc         1 RM5       0.039283
     49 H20         19.5100    30.0810   128.0590 hc         1 RM5       0.039283
     50 H21         19.8580    31.4310   129.1430 hc         1 RM5       0.039283
     51 H22         12.6930    39.3480   122.9380 ho         1 RM5       0.445000
     52 H23         14.5530    40.8790   123.4310 hc         1 RM5       0.046033
     53 H24         16.1610    40.2280   123.1050 hc         1 RM5       0.046033
     54 H25         15.0630    40.5620   121.7690 hc         1 RM5       0.046033
     55 H26         15.5400    35.5620   128.7270 hn         1 RM5       0.340500
     56 H27         17.6400    34.8530   128.4010 hn         1 RM5       0.163000
@<TRIPOS>BOND
     1     1     2 2   
     2     1    19 1   
     3     1    30 1   
     4     2     3 1   
     5     2    20 1   
     6     3    18 2   
     7     3    31 1   
     8     4    20 1   
     9     4    32 1   
    10     4    33 1   
    11     4    34 1   
    12     5    24 1   
    13     5    27 1   
    14     5    28 2   
    15     6     7 ar  
    16     6    11 ar  
    17     6    27 1   
    18     7     8 ar  
    19     7    12 1   
    20     8     9 ar  
    21     8    35 1   
    22     9    10 ar  
    23     9    29 1   
    24    10    11 ar  
    25    10    36 1   
    26    11    15 1   
    27    12    13 1   
    28    12    14 1   
    29    12    37 1   
    30    13    38 1   
    31    13    39 1   
    32    13    40 1   
    33    14    41 1   
    34    14    42 1   
    35    14    43 1   
    36    15    16 1   
    37    15    17 1   
    38    15    44 1   
    39    16    45 1   
    40    16    46 1   
    41    16    47 1   
    42    17    48 1   
    43    17    49 1   
    44    17    50 1   
    45    18    19 1   
    46    18    23 1   
    47    20    21 1   
    48    20    22 1   
    49    21    51 1   
    50    22    52 1   
    51    22    53 1   
    52    22    54 1   
    53    23    24 1   
    54    23    25 2   
    55    23    26 2   
    56    24    55 1   
    57    27    56 1   
@<TRIPOS>SUBSTRUCTURE
     1 RM5         1 TEMP              0 ****  ****    0 ROOT
