@<TRIPOS>MOLECULE
RM6
   36    38     1     0     0
SMALL
abcg2


@<TRIPOS>ATOM
      1 C18        -48.0240   -30.3320     5.9180 ca         1 RM6       0.380900
      2 C17        -49.3280   -29.9650     6.2430 ca         1 RM6      -0.225000
      3 C15        -51.5610   -29.3900     7.1010 cc         1 RM6      -0.157400
      4 C14        -51.4740   -29.1370     5.7760 cd         1 RM6      -0.168200
      5 C13        -50.1840   -29.4610     5.2510 ca         1 RM6      -0.054800
      6 C12        -49.6810   -29.3500     3.9520 ca         1 RM6      -0.065000
      7 C11        -48.3770   -29.7400     3.7290 ca         1 RM6       0.285500
      8 C10        -47.7990   -29.6320     2.3450 c          1 RM6       0.507600
      9 C02        -45.0880   -35.3740    -0.9980 c          1 RM6       0.718000
     10 C03        -44.2770   -34.0690    -0.8830 c3         1 RM6      -0.203400
     11 C04        -45.0890   -32.8050    -0.7080 cy         1 RM6      -0.029700
     12 C05        -44.2660   -31.5170    -0.4630 cy         1 RM6      -0.078400
     13 C06        -44.9560   -31.3300     0.9050 cy         1 RM6      -0.120700
     14 C07        -45.7760   -32.6140     0.6620 cy         1 RM6      -0.078400
     15 C08        -45.7550   -30.0490     1.0310 c3         1 RM6       0.111000
     16 N09        -46.5290   -30.0340     2.2500 ns         1 RM6      -0.472900
     17 N19        -47.5720   -30.2180     4.6900 nb         1 RM6      -0.666000
     18 O01        -46.3270   -35.2970    -0.8780 o          1 RM6      -0.741000
     19 O20        -48.4710   -29.2060     1.4140 o          1 RM6      -0.620100
     20 O21        -44.4250   -36.4120    -1.2020 o          1 RM6      -0.741000
     21 S16        -50.1080   -30.0330     7.7810 ss         1 RM6       0.075400
     22 H181       -47.3440   -30.7220     6.6680 h4         1 RM6       0.026100
     23 H151       -52.4170   -29.2350     7.7400 h4         1 RM6       0.214000
     24 H141       -52.2850   -28.7350     5.1850 ha         1 RM6       0.209000
     25 H121       -50.2940   -28.9680     3.1470 ha         1 RM6       0.152000
     26 H032       -43.5760   -34.1730    -0.0440 hc         1 RM6       0.018200
     27 H031       -43.6400   -33.9760    -1.7700 hc         1 RM6       0.018200
     28 H041       -45.7870   -32.6980    -1.5410 hc         1 RM6       0.059700
     29 H051       -43.1870   -31.6720    -0.4080 hc         1 RM6       0.043200
     30 H052       -44.4500   -30.7080    -1.1740 hc         1 RM6       0.043200
     31 H061       -44.2630   -31.4130     1.7470 hc         1 RM6       0.040700
     32 H071       -46.8560   -32.4570     0.6200 hc         1 RM6       0.043200
     33 H072       -45.5860   -33.4170     1.3760 hc         1 RM6       0.043200
     34 H081       -45.0810   -29.1860     0.9980 h1         1 RM6       0.047700
     35 H082       -46.4390   -29.9510     0.1870 h1         1 RM6       0.047700
     36 H091       -46.0890   -30.3420     3.1060 hn         1 RM6       0.335500
@<TRIPOS>BOND
     1     1     2 ar  
     2     1    17 ar  
     3     1    22 1   
     4     2     5 ar  
     5     2    21 1   
     6     3     4 2   
     7     3    21 1   
     8     3    23 1   
     9     4     5 1   
    10     4    24 1   
    11     5     6 ar  
    12     6     7 ar  
    13     6    25 1   
    14     7     8 1   
    15     7    17 ar  
    16     8    16 1   
    17     8    19 2   
    18     9    10 1   
    19     9    18 1   
    20     9    20 1   
    21    10    11 1   
    22    10    26 1   
    23    10    27 1   
    24    11    12 1   
    25    11    14 1   
    26    11    28 1   
    27    12    13 1   
    28    12    29 1   
    29    12    30 1   
    30    13    14 1   
    31    13    15 1   
    32    13    31 1   
    33    14    32 1   
    34    14    33 1   
    35    15    16 1   
    36    15    34 1   
    37    15    35 1   
    38    16    36 1   
@<TRIPOS>SUBSTRUCTURE
     1 RM6         1 TEMP              0 ****  ****    0 ROOT
