@<TRIPOS>MOLECULE
RM6
   36    38     1     0     0
SMALL
No Charge or Current Charge


@<TRIPOS>ATOM
      1 C18        -48.3970   -30.7840     5.6840 ca         1 RM6       0.380900
      2 C17        -49.5740   -30.1370     6.0860 ca         1 RM6      -0.225000
      3 C15        -51.6320   -29.1510     7.1270 cc         1 RM6      -0.157400
      4 C14        -51.4100   -28.7430     5.8250 cd         1 RM6      -0.168200
      5 C13        -50.2300   -29.3020     5.2160 ca         1 RM6      -0.054800
      6 C12        -49.7250   -29.0970     3.9270 ca         1 RM6      -0.065000
      7 C11        -48.5330   -29.7720     3.5660 ca         1 RM6       0.285500
      8 C10        -47.9530   -29.5700     2.1610 c          1 RM6       0.507600
      9 C02        -45.2060   -35.2690    -0.8760 c          1 RM6       0.718000
     10 C03        -44.1960   -34.1090    -0.9540 c3         1 RM6      -0.203400
     11 C04        -44.8370   -32.8160    -0.4080 cy         1 RM6      -0.029700
     12 C05        -43.9200   -31.5590    -0.2260 cy         1 RM6      -0.078400
     13 C06        -44.8630   -31.1470     0.9570 cy         1 RM6      -0.120700
     14 C07        -45.1010   -32.6910     1.1310 cy         1 RM6      -0.078400
     15 C08        -46.0670   -30.2340     0.6260 c3         1 RM6       0.111000
     16 N09        -46.7910   -30.2660     1.8950 ns         1 RM6      -0.472900
     17 N19        -47.8790   -30.6080     4.4420 nb         1 RM6      -0.666000
     18 O01        -45.2480   -35.9320     0.1490 o          1 RM6      -0.741000
     19 O20        -48.4660   -28.8440     1.3120 o          1 RM6      -0.620100
     20 O21        -45.9920   -35.4090    -1.8010 o          1 RM6      -0.741000
     21 S16        -50.3600   -30.2790     7.6820 ss         1 RM6       0.075400
     22 H181       -47.8580   -31.4510     6.3560 h4         1 RM6       0.026100
     23 H151       -52.4370   -28.8810     7.8020 h4         1 RM6       0.214000
     24 H141       -52.0750   -28.0550     5.3070 ha         1 RM6       0.209000
     25 H121       -50.2310   -28.4410     3.2260 ha         1 RM6       0.152000
     26 H032       -43.3210   -34.3220    -0.3270 hc         1 RM6       0.018200
     27 H031       -43.9390   -33.9010    -1.9990 hc         1 RM6       0.018200
     28 H041       -45.7280   -32.6080    -1.0140 hc         1 RM6       0.059700
     29 H051       -42.8910   -31.7870     0.0780 hc         1 RM6       0.043200
     30 H052       -43.8830   -30.8690    -1.0760 hc         1 RM6       0.043200
     31 H061       -44.3170   -30.6880     1.7900 hc         1 RM6       0.040700
     32 H071       -46.0980   -32.9960     1.4670 hc         1 RM6       0.043200
     33 H072       -44.3570   -33.1920     1.7620 hc         1 RM6       0.043200
     34 H081       -45.7290   -29.2160     0.3920 h1         1 RM6       0.047700
     35 H082       -46.6800   -30.6480    -0.1850 h1         1 RM6       0.047700
     36 H091       -46.4390   -30.8440     2.6520 hn         1 RM6       0.335500
@<TRIPOS>BOND
     1     1     2 ar  
     2     1    17 ar  
     3     1    22 1   
     4     2     5 ar  
     5     2    21 1   
     6     3     4 2   
     7     3    21 1   
     8     3    23 1   
     9     4     5 1   
    10     4    24 1   
    11     5     6 ar  
    12     6     7 ar  
    13     6    25 1   
    14     7     8 1   
    15     7    17 ar  
    16     8    16 1   
    17     8    19 2   
    18     9    10 1   
    19     9    18 1   
    20     9    20 1   
    21    10    11 1   
    22    10    26 1   
    23    10    27 1   
    24    11    12 1   
    25    11    14 1   
    26    11    28 1   
    27    12    13 1   
    28    12    29 1   
    29    12    30 1   
    30    13    14 1   
    31    13    15 1   
    32    13    31 1   
    33    14    32 1   
    34    14    33 1   
    35    15    16 1   
    36    15    34 1   
    37    15    35 1   
    38    16    36 1   
@<TRIPOS>SUBSTRUCTURE
     1 RM6         1 TEMP              0 ****  ****    0 ROOT
