@<TRIPOS>MOLECULE
RM7
   57    60     1     0     0
SMALL
abcg2


@<TRIPOS>ATOM
      1 C10         18.7160    -9.9100    42.1720 c3         1 RM7       0.138800
      2 C12         17.2090   -10.7930    40.5360 c6         1 RM7       0.169800
      3 C13         16.8600   -12.0440    39.7250 c6         1 RM7      -0.074400
      4 C15         19.1110   -13.0490    40.1680 c6         1 RM7      -0.074400
      5 C16         18.9310   -12.2080    41.4340 c6         1 RM7       0.169800
      6 C02         21.4000   -10.8340    37.9270 ca         1 RM7       0.451900
      7 N03         21.1350    -9.6190    38.4110 nb         1 RM7      -0.328000
      8 C04         20.1690    -8.9050    37.8580 ca         1 RM7       0.288300
      9 S05         19.8290    -7.2850    38.4660 ss         1 RM7      -0.277300
     10 C06         21.1020    -7.0320    39.7330 c3         1 RM7      -0.061400
     11 C07         20.6330    -7.5130    41.0950 c          1 RM7       0.602100
     12 N08         20.7510    -8.8330    41.2890 ns         1 RM7      -0.487900
     13 C09         20.1660    -9.5130    42.4200 c3         1 RM7       0.103000
     14 N11         18.5600   -10.8510    41.0840 n3         1 RM7      -0.727600
     15 C14         18.1010   -12.6450    39.0860 c6         1 RM7      -0.066400
     16 O17         20.1870    -6.7310    41.9230 o          1 RM7      -0.608100
     17 N18         19.4010    -9.2450    36.8460 nb         1 RM7      -0.171000
     18 C19         19.6500   -10.4680    36.3790 ca         1 RM7       0.170300
     19 C20         20.6190   -11.3520    36.8610 ca         1 RM7      -0.232800
     20 C21         20.5980   -12.6140    36.1780 cc         1 RM7      -0.042400
     21 C22         19.6630   -12.6380    35.1920 cd         1 RM7      -0.088600
     22 C23         19.4680   -13.7810    34.2510 c3         1 RM7      -0.005200
     23 C24         20.7130   -14.0700    33.3720 c3         1 RM7      -0.065400
     24 C25         22.0350   -13.4720    33.8580 c3         1 RM7      -0.070400
     25 C26         22.5250   -13.9330    35.2300 c3         1 RM7      -0.066400
     26 C27         21.4720   -13.8220    36.3460 c3         1 RM7      -0.017200
     27 S28         18.7610   -11.1620    35.0750 ss         1 RM7      -0.083900
     28 H1          18.1630    -9.0010    41.9200 h1         1 RM7       0.043200
     29 H2          18.2790   -10.2850    43.1130 h1         1 RM7       0.043200
     30 H3          17.1400    -9.9030    39.9030 h1         1 RM7       0.030700
     31 H4          16.4570   -10.6730    41.3340 h1         1 RM7       0.030700
     32 H5          16.1140   -11.7890    38.9700 hc         1 RM7       0.037950
     33 H6          16.3910   -12.7900    40.3720 hc         1 RM7       0.037950
     34 H7          18.9940   -14.1040    40.4290 hc         1 RM7       0.037950
     35 H8          20.1280   -12.9310    39.7870 hc         1 RM7       0.037950
     36 H9          18.1860   -12.6730    42.1030 h1         1 RM7       0.030700
     37 H10         19.8650   -12.1980    41.9980 h1         1 RM7       0.030700
     38 H11         22.9700   -11.0340    39.1900 hn         1 RM7       0.498500
     39 H12         22.7710   -12.3510    38.1140 hn         1 RM7       0.498500
     40 H13         22.0220    -7.5190    39.4130 h1         1 RM7       0.101200
     41 H14         21.2700    -5.9570    39.7670 h1         1 RM7       0.101200
     42 H15         20.9970    -9.3890    40.4780 hn         1 RM7       0.341500
     43 H16         20.7820   -10.3840    42.6520 h1         1 RM7       0.054700
     44 H17         20.2150    -8.8610    43.2920 h1         1 RM7       0.054700
     45 H19         17.8360   -13.5060    38.4690 hc         1 RM7       0.043200
     46 H20         18.5530   -11.9140    38.4130 hc         1 RM7       0.043200
     47 H21         18.6010   -13.6120    33.6110 hc         1 RM7       0.050200
     48 H22         19.2210   -14.6680    34.8430 hc         1 RM7       0.050200
     49 H23         20.5290   -13.6840    32.3680 hc         1 RM7       0.040200
     50 H24         20.8160   -15.1520    33.2650 hc         1 RM7       0.040200
     51 H25         22.8050   -13.7090    33.1200 hc         1 RM7       0.043700
     52 H26         21.9510   -12.3830    33.8550 hc         1 RM7       0.043700
     53 H27         22.8610   -14.9720    35.1790 hc         1 RM7       0.037200
     54 H28         23.4030   -13.3390    35.4970 hc         1 RM7       0.037200
     55 H29         20.8330   -14.7080    36.3210 hc         1 RM7       0.043700
     56 H30         21.9500   -13.8660    37.3250 hc         1 RM7       0.043700
     57 N01         22.4040   -11.5020    38.5020 nv         1 RM7      -1.071900
@<TRIPOS>BOND
     1     1    13 1   
     2     1    14 1   
     3     1    28 1   
     4     1    29 1   
     5     2     3 1   
     6     2    14 1   
     7     2    30 1   
     8     2    31 1   
     9     3    15 1   
    10     3    32 1   
    11     3    33 1   
    12     4     5 1   
    13     4    15 1   
    14     4    34 1   
    15     4    35 1   
    16     5    14 1   
    17     5    36 1   
    18     5    37 1   
    19     6     7 ar  
    20     6    19 ar  
    21     6    57 1   
    22     7     8 ar  
    23     8     9 1   
    24     8    17 ar  
    25     9    10 1   
    26    10    11 1   
    27    10    40 1   
    28    10    41 1   
    29    11    12 1   
    30    11    16 2   
    31    12    13 1   
    32    12    42 1   
    33    13    43 1   
    34    13    44 1   
    35    15    45 1   
    36    15    46 1   
    37    17    18 ar  
    38    18    19 ar  
    39    18    27 1   
    40    19    20 1   
    41    20    21 2   
    42    20    26 1   
    43    21    22 1   
    44    21    27 1   
    45    22    23 1   
    46    22    47 1   
    47    22    48 1   
    48    23    24 1   
    49    23    49 1   
    50    23    50 1   
    51    24    25 1   
    52    24    51 1   
    53    24    52 1   
    54    25    26 1   
    55    25    53 1   
    56    25    54 1   
    57    26    55 1   
    58    26    56 1   
    59    38    57 1   
    60    39    57 1   
@<TRIPOS>SUBSTRUCTURE
     1 RM7         1 TEMP              0 ****  ****    0 ROOT
