@<TRIPOS>MOLECULE
RM7
   57    60     1     0     0
SMALL
No Charge or Current Charge


@<TRIPOS>ATOM
      1 C10         18.9680   -10.3820    42.2640 c3         1 RM7       0.138800
      2 C12         16.8750   -11.1390    41.1980 c6         1 RM7       0.169800
      3 C13         16.1400   -11.4200    39.8570 c6         1 RM7      -0.074400
      4 C15         18.2340   -12.7230    39.2440 c6         1 RM7      -0.074400
      5 C16         19.0250   -12.0550    40.4060 c6         1 RM7       0.169800
      6 C02         21.7240   -10.5220    37.7670 ca         1 RM7       0.451900
      7 N03         21.4530    -9.2900    38.2140 nb         1 RM7      -0.328000
      8 C04         20.2910    -8.7310    37.8080 ca         1 RM7       0.288300
      9 S05         19.8850    -7.0950    38.4170 ss         1 RM7      -0.277300
     10 C06         20.9180    -6.8700    39.9530 c3         1 RM7      -0.061400
     11 C07         20.4370    -7.7000    41.1540 c          1 RM7       0.602100
     12 N08         20.7940    -9.0280    41.1300 ns         1 RM7      -0.487900
     13 C09         20.4740   -10.0130    42.1710 c3         1 RM7       0.103000
     14 N11         18.3280   -10.8770    41.0130 n3         1 RM7      -0.727600
     15 C14         17.1030   -11.8170    38.7110 c6         1 RM7      -0.066400
     16 O17         19.8140    -7.2070    42.0840 o          1 RM7      -0.608100
     17 N18         19.4090    -9.2860    36.9520 nb         1 RM7      -0.171000
     18 C19         19.7130   -10.5210    36.5180 ca         1 RM7       0.170300
     19 C20         20.8440   -11.2110    36.9110 ca         1 RM7      -0.232800
     20 C21         20.9270   -12.5520    36.3270 cc         1 RM7      -0.042400
     21 C22         19.8730   -12.7500    35.4390 cd         1 RM7      -0.088600
     22 C23         19.6140   -13.9530    34.5510 c3         1 RM7      -0.005200
     23 C24         20.8530   -14.7830    34.1030 c3         1 RM7      -0.065400
     24 C25         22.1900   -14.0000    34.0460 c3         1 RM7      -0.070400
     25 C26         22.9050   -13.8610    35.4160 c3         1 RM7      -0.066400
     26 C27         21.9570   -13.6170    36.6090 c3         1 RM7      -0.017200
     27 S28         18.7060   -11.4000    35.3680 ss         1 RM7      -0.083900
     28 H1          18.4300    -9.4910    42.6140 h1         1 RM7       0.043200
     29 H2          18.8620   -11.1380    43.0530 h1         1 RM7       0.043200
     30 H3          16.3860   -10.2860    41.6930 h1         1 RM7       0.030700
     31 H4          16.7420   -12.0070    41.8610 h1         1 RM7       0.030700
     32 H5          15.5720   -10.5300    39.5540 hc         1 RM7       0.037950
     33 H6          15.3990   -12.2150    40.0150 hc         1 RM7       0.037950
     34 H7          17.7980   -13.6650    39.6030 hc         1 RM7       0.037950
     35 H8          18.9210   -12.9950    38.4320 hc         1 RM7       0.037950
     36 H9          19.2280   -12.8180    41.1720 h1         1 RM7       0.030700
     37 H10         20.0020   -11.7350    40.0140 h1         1 RM7       0.030700
     38 H11         23.5720   -10.3200    38.5770 hn         1 RM7       0.498500
     39 H12         23.3310   -11.7600    37.6710 hn         1 RM7       0.498500
     40 H13         21.9640    -7.1210    39.7450 h1         1 RM7       0.101200
     41 H14         20.8770    -5.8160    40.2520 h1         1 RM7       0.101200
     42 H15         21.2710    -9.3520    40.2960 hn         1 RM7       0.341500
     43 H16         21.0590   -10.9210    41.9780 h1         1 RM7       0.054700
     44 H17         20.8020    -9.6150    43.1400 h1         1 RM7       0.054700
     45 H19         16.5530   -12.3190    37.9040 hc         1 RM7       0.043200
     46 H20         17.5370   -10.9080    38.2760 hc         1 RM7       0.043200
     47 H21         19.1090   -13.6040    33.6420 hc         1 RM7       0.050200
     48 H22         18.9000   -14.6260    35.0420 hc         1 RM7       0.050200
     49 H23         20.6440   -15.1970    33.1090 hc         1 RM7       0.040200
     50 H24         20.9720   -15.6500    34.7640 hc         1 RM7       0.040200
     51 H25         22.8720   -14.5090    33.3530 hc         1 RM7       0.043700
     52 H26         22.0100   -13.0060    33.6180 hc         1 RM7       0.043700
     53 H27         23.4810   -14.7740    35.6140 hc         1 RM7       0.037200
     54 H28         23.6310   -13.0410    35.3530 hc         1 RM7       0.037200
     55 H29         21.4340   -14.5520    36.8400 hc         1 RM7       0.043700
     56 H30         22.5400   -13.4110    37.5100 hc         1 RM7       0.043700
     57 N01         22.9180   -10.9940    38.1910 nv         1 RM7      -1.071900
@<TRIPOS>BOND
     1     1    13 1   
     2     1    14 1   
     3     1    28 1   
     4     1    29 1   
     5     2     3 1   
     6     2    14 1   
     7     2    30 1   
     8     2    31 1   
     9     3    15 1   
    10     3    32 1   
    11     3    33 1   
    12     4     5 1   
    13     4    15 1   
    14     4    34 1   
    15     4    35 1   
    16     5    14 1   
    17     5    36 1   
    18     5    37 1   
    19     6     7 ar  
    20     6    19 ar  
    21     6    57 1   
    22     7     8 ar  
    23     8     9 1   
    24     8    17 ar  
    25     9    10 1   
    26    10    11 1   
    27    10    40 1   
    28    10    41 1   
    29    11    12 1   
    30    11    16 2   
    31    12    13 1   
    32    12    42 1   
    33    13    43 1   
    34    13    44 1   
    35    15    45 1   
    36    15    46 1   
    37    17    18 ar  
    38    18    19 ar  
    39    18    27 1   
    40    19    20 1   
    41    20    21 2   
    42    20    26 1   
    43    21    22 1   
    44    21    27 1   
    45    22    23 1   
    46    22    47 1   
    47    22    48 1   
    48    23    24 1   
    49    23    49 1   
    50    23    50 1   
    51    24    25 1   
    52    24    51 1   
    53    24    52 1   
    54    25    26 1   
    55    25    53 1   
    56    25    54 1   
    57    26    55 1   
    58    26    56 1   
    59    38    57 1   
    60    39    57 1   
@<TRIPOS>SUBSTRUCTURE
     1 RM7         1 TEMP              0 ****  ****    0 ROOT
