@<TRIPOS>MOLECULE
RM8
   45    48     1     0     0
SMALL
No Charge or Current Charge


@<TRIPOS>ATOM
      1 C1          -2.7610     2.8150     1.4980 c3         1 RM8      -0.042900
      2 N1          -4.2220     0.6920     1.3190 na         1 RM8      -0.225700
      3 C2          -3.1730     1.5150     0.8640 cc         1 RM8      -0.027300
      4 N2          -0.1710     1.1360    -0.4550 n3         1 RM8      -0.719600
      5 C3          -2.6470     0.8590    -0.2450 cd         1 RM8      -0.153400
      6 N3           2.6480     0.1630    -0.1920 nh         1 RM8      -0.771300
      7 C4          -3.3790    -0.3700    -0.4650 ca         1 RM8      -0.090800
      8 N4           4.8650     0.2430    -0.8600 nb         1 RM8      -0.752000
      9 C5          -3.2430    -1.3780    -1.4300 ca         1 RM8      -0.067000
     10 C6          -4.1320    -2.4730    -1.3620 ca         1 RM8      -0.139000
     11 C7          -5.1200    -2.5330    -0.3480 ca         1 RM8      -0.095000
     12 C8          -5.2260    -1.5000     0.6090 ca         1 RM8      -0.127000
     13 C9          -4.3300    -0.4280     0.5150 ca         1 RM8      -0.047200
     14 C10         -1.4930     1.3510    -1.0880 c3         1 RM8       0.245000
     15 C11          0.9400     1.7530    -1.2370 c6         1 RM8       0.153300
     16 C12          2.3350     1.5880    -0.5520 c6         1 RM8       0.215300
     17 C13          1.5110    -0.5240     0.5010 c6         1 RM8       0.215300
     18 C14          0.1360    -0.3060    -0.2080 c6         1 RM8       0.153300
     19 C15          3.9780    -0.2460     0.0250 ca         1 RM8       0.616900
     20 C16          4.3530    -1.1070     1.0760 ca         1 RM8      -0.231000
     21 C17          5.6980    -1.4760     1.2180 ca         1 RM8      -0.038000
     22 C18          6.6170    -0.9640     0.2930 ca         1 RM8      -0.224000
     23 C19          6.1600    -0.1120    -0.7240 ca         1 RM8       0.385900
     24 H1          -3.2970     2.9870     2.4400 hc         1 RM8       0.053033
     25 H1A         -1.6870     2.8170     1.7160 hc         1 RM8       0.053033
     26 H1B         -2.9730     3.6570     0.8290 hc         1 RM8       0.053033
     27 HN1         -4.8120     0.8900     2.1190 hn         1 RM8       0.347000
     28 H5          -2.4800    -1.3230    -2.2020 ha         1 RM8       0.112000
     29 H6          -4.0580    -3.2750    -2.0930 ha         1 RM8       0.110000
     30 H7          -5.8000    -3.3820    -0.3050 ha         1 RM8       0.110000
     31 H8          -5.9790    -1.5370     1.3920 ha         1 RM8       0.112000
     32 H10         -1.6450     2.4230    -1.2710 h1         1 RM8       0.036200
     33 H10A        -1.5280     0.8540    -2.0670 h1         1 RM8       0.036200
     34 H11          0.9910     1.2990    -2.2380 h1         1 RM8       0.042700
     35 H11A         0.7520     2.8260    -1.3840 h1         1 RM8       0.042700
     36 H12          2.3520     2.2060     0.3570 h1         1 RM8       0.051450
     37 H12A         3.0880     2.0050    -1.2360 h1         1 RM8       0.051450
     38 H13          1.6910    -1.6080     0.5480 h1         1 RM8       0.051450
     39 H13A         1.4340    -0.1590     1.5360 h1         1 RM8       0.051450
     40 H14         -0.6430    -0.7660     0.4170 h1         1 RM8       0.042700
     41 H14A         0.1450    -0.8560    -1.1610 h1         1 RM8       0.042700
     42 H16          3.6220    -1.4800     1.7840 ha         1 RM8       0.120000
     43 H17          6.0180    -2.1370     2.0220 ha         1 RM8       0.112000
     44 H18          7.6710    -1.2180     0.3570 ha         1 RM8       0.123000
     45 H19          6.8550     0.3000    -1.4550 h4         1 RM8       0.012100
@<TRIPOS>BOND
     1     1     3 1   
     2     1    24 1   
     3     1    25 1   
     4     1    26 1   
     5     2     3 1   
     6     2    13 1   
     7     2    27 1   
     8     3     5 2   
     9     4    14 1   
    10     4    15 1   
    11     4    18 1   
    12     5     7 1   
    13     5    14 1   
    14     6    16 1   
    15     6    17 1   
    16     6    19 1   
    17     7     9 ar  
    18     7    13 ar  
    19     8    19 ar  
    20     8    23 ar  
    21     9    10 ar  
    22     9    28 1   
    23    10    11 ar  
    24    10    29 1   
    25    11    12 ar  
    26    11    30 1   
    27    12    13 ar  
    28    12    31 1   
    29    14    32 1   
    30    14    33 1   
    31    15    16 1   
    32    15    34 1   
    33    15    35 1   
    34    16    36 1   
    35    16    37 1   
    36    17    18 1   
    37    17    38 1   
    38    17    39 1   
    39    18    40 1   
    40    18    41 1   
    41    19    20 ar  
    42    20    21 ar  
    43    20    42 1   
    44    21    22 ar  
    45    21    43 1   
    46    22    23 ar  
    47    22    44 1   
    48    23    45 1   
@<TRIPOS>SUBSTRUCTURE
     1 RM8         1 TEMP              0 ****  ****    0 ROOT
