@<TRIPOS>MOLECULE
RM8
   45    48     1     0     0
SMALL
bcc


@<TRIPOS>ATOM
      1 C1          -2.4350     2.6180     1.4320 c3         1 RM8      -0.042900
      2 N1          -4.0300     0.7090     1.3170 na         1 RM8      -0.175400
      3 C2          -2.9650     1.3890     0.7880 cc         1 RM8      -0.027300
      4 N2          -0.1100     1.0330    -0.5510 n3         1 RM8      -0.719600
      5 C3          -2.5410     0.7510    -0.3490 cd         1 RM8      -0.153400
      6 N3           2.5880     0.2140    -0.1560 nh         1 RM8      -0.771300
      7 C4          -3.3910    -0.3880    -0.5220 ca         1 RM8      -0.090800
      8 N4           4.8330     0.6430    -0.4590 nb         1 RM8      -0.752000
      9 C5          -3.4570    -1.4180    -1.4680 ca         1 RM8      -0.085000
     10 C6          -4.4260    -2.3940    -1.3310 ca         1 RM8      -0.157000
     11 C7          -5.3380    -2.3650    -0.2640 ca         1 RM8      -0.113000
     12 C8          -5.2970    -1.3610     0.6860 ca         1 RM8      -0.145000
     13 C9          -4.3170    -0.3800     0.5450 ca         1 RM8      -0.047200
     14 C10         -1.3960     1.1590    -1.2180 c3         1 RM8       0.245000
     15 C11          0.9600     1.6040    -1.3390 c6         1 RM8       0.153300
     16 C12          2.2680     1.5680    -0.5750 c6         1 RM8       0.215300
     17 C13          1.5050    -0.4500     0.5410 c6         1 RM8       0.215300
     18 C14          0.2060    -0.3410    -0.2360 c6         1 RM8       0.153300
     19 C15          3.8930    -0.1200     0.1020 ca         1 RM8       0.682200
     20 C16          4.2490    -1.2270     0.9010 ca         1 RM8      -0.314300
     21 C17          5.5850    -1.5280     1.0620 ca         1 RM8      -0.056000
     22 C18          6.5580    -0.7400     0.4560 ca         1 RM8      -0.307300
     23 C19          6.1120     0.3370    -0.2860 ca         1 RM8       0.451200
     24 H1          -2.1910     2.4450     2.4820 hc         1 RM8       0.053033
     25 H1A         -1.5260     2.9390     0.9300 hc         1 RM8       0.053033
     26 H1B         -3.1580     3.4350     1.3960 hc         1 RM8       0.053033
     27 HN1         -4.5190     0.9740     2.1560 hn         1 RM8       0.296700
     28 H5          -2.7590    -1.4540    -2.2960 ha         1 RM8       0.130000
     29 H6          -4.4860    -3.1960    -2.0560 ha         1 RM8       0.128000
     30 H7          -6.0870    -3.1420    -0.1820 ha         1 RM8       0.128000
     31 H8          -5.9990    -1.3400     1.5100 ha         1 RM8       0.130000
     32 H10         -1.5060     2.2030    -1.5240 h1         1 RM8       0.036200
     33 H10A        -1.4230     0.5690    -2.1500 h1         1 RM8       0.036200
     34 H11          1.0890     1.0810    -2.3040 h1         1 RM8       0.042700
     35 H11A         0.7230     2.6460    -1.5680 h1         1 RM8       0.042700
     36 H12          2.1950     2.2290     0.2990 h1         1 RM8       0.051450
     37 H12A         3.0650     1.9480    -1.2070 h1         1 RM8       0.051450
     38 H13          1.7240    -1.5100     0.6520 h1         1 RM8       0.051450
     39 H13A         1.3690    -0.0320     1.5480 h1         1 RM8       0.051450
     40 H14         -0.5900    -0.7690     0.3770 h1         1 RM8       0.042700
     41 H14A         0.2760    -0.9580    -1.1500 h1         1 RM8       0.042700
     42 H16          3.5090    -1.8350     1.3990 ha         1 RM8       0.138000
     43 H17          5.8670    -2.3780     1.6720 ha         1 RM8       0.130000
     44 H18          7.6130    -0.9460     0.5650 ha         1 RM8       0.141000
     45 H19          6.8240     0.9980    -0.7700 h4         1 RM8       0.012100
@<TRIPOS>BOND
     1     1     3 1   
     2     1    24 1   
     3     1    25 1   
     4     1    26 1   
     5     2     3 1   
     6     2    13 1   
     7     2    27 1   
     8     3     5 2   
     9     4    14 1   
    10     4    15 1   
    11     4    18 1   
    12     5     7 1   
    13     5    14 1   
    14     6    16 1   
    15     6    17 1   
    16     6    19 1   
    17     7     9 ar  
    18     7    13 ar  
    19     8    19 ar  
    20     8    23 ar  
    21     9    10 ar  
    22     9    28 1   
    23    10    11 ar  
    24    10    29 1   
    25    11    12 ar  
    26    11    30 1   
    27    12    13 ar  
    28    12    31 1   
    29    14    32 1   
    30    14    33 1   
    31    15    16 1   
    32    15    34 1   
    33    15    35 1   
    34    16    36 1   
    35    16    37 1   
    36    17    18 1   
    37    17    38 1   
    38    17    39 1   
    39    18    40 1   
    40    18    41 1   
    41    19    20 ar  
    42    20    21 ar  
    43    20    42 1   
    44    21    22 ar  
    45    21    43 1   
    46    22    23 ar  
    47    22    44 1   
    48    23    45 1   
@<TRIPOS>SUBSTRUCTURE
     1 RM8         1 TEMP              0 ****  ****    0 ROOT
