@<TRIPOS>MOLECULE
RMA
   29    30     1     0     0
SMALL
No Charge or Current Charge


@<TRIPOS>ATOM
      1 C13         53.7820   151.0250    22.0150 c1         1 RMA      -0.238000
      2 C12         53.4590   152.0660    22.5440 c1         1 RMA      -0.141100
      3 C11         53.0880   153.3480    23.1680 c3         1 RMA       0.255900
      4 N10         52.8130   153.2530    24.6250 n3         1 RMA      -0.720600
      5 C10         54.0040   152.8520    25.4280 c3         1 RMA       0.153100
      6 C9          51.9730   154.3780    25.1610 c5         1 RMA       0.226800
      7 C1          52.8060   155.7270    25.1460 c5         1 RMA      -0.111400
      8 C2          52.2590   156.5710    26.3610 c5         1 RMA      -0.029100
      9 C3          51.7920   155.4740    27.2850 ca         1 RMA      -0.089300
     10 C8          51.6320   154.2680    26.6290 ca         1 RMA      -0.089300
     11 C7          51.1620   153.1330    27.3120 ca         1 RMA      -0.079000
     12 C4          51.5070   155.5950    28.6540 ca         1 RMA      -0.102000
     13 C5          51.0510   154.4640    29.3590 ca         1 RMA      -0.109000
     14 C6          50.8770   153.2340    28.6880 ca         1 RMA      -0.118000
     15 H13         54.0650   150.0980    21.5580 ha         1 RMA       0.254000
     16 H111        52.1960   153.7160    22.6430 h1         1 RMA       0.047200
     17 H112        53.8920   154.0740    22.9780 h1         1 RMA       0.047200
     18 H101        54.8230   153.5750    25.3190 h1         1 RMA       0.036367
     19 H102        53.7630   152.7690    26.4950 h1         1 RMA       0.036367
     20 H103        54.3820   151.8730    25.1080 h1         1 RMA       0.036367
     21 H9          51.0410   154.4920    24.5870 h1         1 RMA       0.066700
     22 H11         52.7020   156.2620    24.1960 hc         1 RMA       0.048200
     23 H12         53.8770   155.5570    25.2880 hc         1 RMA       0.048200
     24 H21         51.4280   157.2190    26.0610 hc         1 RMA       0.052700
     25 H22         53.0330   157.2070    26.8060 hc         1 RMA       0.052700
     26 H7          51.0270   152.1910    26.7860 ha         1 RMA       0.128000
     27 H4          51.6330   156.5480    29.1630 ha         1 RMA       0.112000
     28 H5          50.8260   154.5400    30.4200 ha         1 RMA       0.111000
     29 H6          50.5180   152.3640    29.2330 ha         1 RMA       0.112000
@<TRIPOS>BOND
     1     1     2 3   
     2     1    15 1   
     3     2     3 1   
     4     3     4 1   
     5     3    16 1   
     6     3    17 1   
     7     4     5 1   
     8     4     6 1   
     9     5    18 1   
    10     5    19 1   
    11     5    20 1   
    12     6     7 1   
    13     6    10 1   
    14     6    21 1   
    15     7     8 1   
    16     7    22 1   
    17     7    23 1   
    18     8     9 1   
    19     8    24 1   
    20     8    25 1   
    21     9    10 ar  
    22     9    12 ar  
    23    10    11 ar  
    24    11    14 ar  
    25    11    26 1   
    26    12    13 ar  
    27    12    27 1   
    28    13    14 ar  
    29    13    28 1   
    30    14    29 1   
@<TRIPOS>SUBSTRUCTURE
     1 RMA         1 TEMP              0 ****  ****    0 ROOT
