@<TRIPOS>MOLECULE
RMA
   29    30     1     0     0
SMALL
abcg2


@<TRIPOS>ATOM
      1 C13         53.6150   150.9670    22.1250 c1         1 RMA      -0.238000
      2 C12         53.3440   152.0270    22.6220 c1         1 RMA      -0.141100
      3 C11         53.0130   153.3210    23.2170 c3         1 RMA       0.255900
      4 N10         52.8450   153.2410    24.6680 n3         1 RMA      -0.720600
      5 C10         54.0980   152.9270    25.3440 c3         1 RMA       0.153100
      6 C9          52.1390   154.4110    25.1940 c5         1 RMA       0.226800
      7 C1          52.8910   155.7720    25.2010 c5         1 RMA      -0.111400
      8 C2          52.2820   156.5610    26.3790 c5         1 RMA      -0.029100
      9 C3          51.7820   155.4790    27.3040 ca         1 RMA      -0.089300
     10 C8          51.7030   154.2590    26.6350 ca         1 RMA      -0.089300
     11 C7          51.2390   153.1220    27.2810 ca         1 RMA      -0.079000
     12 C4          51.4020   155.5710    28.6370 ca         1 RMA      -0.102000
     13 C5          50.9450   154.4290    29.2940 ca         1 RMA      -0.109000
     14 C6          50.8620   153.2110    28.6190 ca         1 RMA      -0.118000
     15 H13         53.8560   150.0240    21.6930 ha         1 RMA       0.254000
     16 H111        52.0760   153.6770    22.7830 h1         1 RMA       0.047200
     17 H112        53.7910   154.0480    22.9290 h1         1 RMA       0.047200
     18 H101        54.9000   153.6480    25.1280 h1         1 RMA       0.036367
     19 H102        53.9380   152.9040    26.4210 h1         1 RMA       0.036367
     20 H103        54.4410   151.9410    25.0290 h1         1 RMA       0.036367
     21 H9          51.2400   154.5150    24.5760 h1         1 RMA       0.066700
     22 H11         52.8060   156.2970    24.2510 hc         1 RMA       0.048200
     23 H12         53.9510   155.5970    25.3930 hc         1 RMA       0.048200
     24 H21         51.4430   157.1770    26.0400 hc         1 RMA       0.052700
     25 H22         52.9970   157.2330    26.8580 hc         1 RMA       0.052700
     26 H7          51.1850   152.1770    26.7540 ha         1 RMA       0.128000
     27 H4          51.4650   156.5160    29.1660 ha         1 RMA       0.112000
     28 H5          50.6550   154.4880    30.3360 ha         1 RMA       0.111000
     29 H6          50.5080   152.3310    29.1410 ha         1 RMA       0.112000
@<TRIPOS>BOND
     1     1     2 3   
     2     1    15 1   
     3     2     3 1   
     4     3     4 1   
     5     3    16 1   
     6     3    17 1   
     7     4     5 1   
     8     4     6 1   
     9     5    18 1   
    10     5    19 1   
    11     5    20 1   
    12     6     7 1   
    13     6    10 1   
    14     6    21 1   
    15     7     8 1   
    16     7    22 1   
    17     7    23 1   
    18     8     9 1   
    19     8    24 1   
    20     8    25 1   
    21     9    10 ar  
    22     9    12 ar  
    23    10    11 ar  
    24    11    14 ar  
    25    11    26 1   
    26    12    13 ar  
    27    12    27 1   
    28    13    14 ar  
    29    13    28 1   
    30    14    29 1   
@<TRIPOS>SUBSTRUCTURE
     1 RMA         1 TEMP              0 ****  ****    0 ROOT
