@<TRIPOS>MOLECULE
RMC
   55    57     1     0     0
SMALL
abcg2


@<TRIPOS>ATOM
      1 OAP         -1.2000     4.5650    -1.5310 oh         1 RMC      -0.664000
      2 CAQ         -0.0210     3.8160    -1.3460 c3         1 RMC       0.134600
      3 CAR         -0.0090     3.2330     0.0610 c3         1 RMC       0.251500
      4 CAK         -0.0010     4.3070     1.1470 c3         1 RMC      -0.083400
      5 CAI          0.2490     3.7430     2.5390 c3         1 RMC      -0.089100
      6 NAS         -1.1120     2.3240     0.2840 nu         1 RMC      -0.918100
      7 CAT         -1.1360     1.0240    -0.0870 ca         1 RMC       0.444900
      8 NAU         -2.2940     0.3820     0.0840 nb         1 RMC      -0.300000
      9 CAV         -2.2040    -0.8930    -0.2710 ca         1 RMC       0.166500
     10 NAW         -3.2040    -1.8160    -0.2300 na         1 RMC      -0.288300
     11 CAZ         -4.5520    -1.5890     0.2820 c3         1 RMC       0.095300
     12 CAY         -5.5840    -2.3300    -0.5540 c3         1 RMC      -0.107100
     13 CBA         -4.6310    -1.9590     1.7580 c3         1 RMC      -0.107100
     14 CAX         -2.6630    -2.9890    -0.6770 cc         1 RMC       0.389700
     15 CAN         -1.0890    -1.5680    -0.7650 ca         1 RMC      -0.132600
     16 NAO         -1.4130    -2.8850    -1.0120 nd         1 RMC      -0.552100
     17 NAL         -0.0000     0.5060    -0.5620 nb         1 RMC      -0.379000
     18 CAM          0.0780    -0.7770    -0.9180 ca         1 RMC       0.494900
     19 NAJ          1.2540    -1.2110    -1.4130 nh         1 RMC      -0.763300
     20 CAD          2.3830    -0.3090    -1.5690 c3         1 RMC       0.269100
     21 CAE          4.6220    -1.0560    -0.6840 ca         1 RMC      -0.095000
     22 CAG          5.5470    -1.1990     0.3440 ca         1 RMC      -0.115500
     23 CAH          5.2510    -0.7270     1.6150 ca         1 RMC      -0.105000
     24 CAF          4.0270    -0.1110     1.8510 ca         1 RMC      -0.115500
     25 CAC          3.1060     0.0300     0.8230 ca         1 RMC      -0.095000
     26 CAB          3.3940    -0.4430    -0.4570 ca         1 RMC      -0.112300
     27 CBB          1.5410    -2.5940    -1.7210 c3         1 RMC       0.200100
     28 HAP         -1.2010     4.9070    -2.4290 ho         1 RMC       0.443000
     29 HAQ1         0.8790     4.4340    -1.4720 h1         1 RMC       0.029200
     30 HAQ2         0.0510     2.9920    -2.0680 h1         1 RMC       0.029200
     31 HAR          0.9150     2.6550     0.1420 h1         1 RMC       0.078700
     32 HAK1        -0.9410     4.8640     1.1300 hc         1 RMC       0.049700
     33 HAK2         0.7830     5.0290     0.9040 hc         1 RMC       0.049700
     34 HAI1         0.2640     4.5350     3.2870 hc         1 RMC       0.035033
     35 HAI2        -0.5210     3.0270     2.8290 hc         1 RMC       0.035033
     36 HAI3         1.2110     3.2270     2.5840 hc         1 RMC       0.035033
     37 HAS         -2.0050     2.7230     0.5260 hn         1 RMC       0.506000
     38 HAZ         -4.7230    -0.5170     0.1780 h1         1 RMC       0.086700
     39 HAY1        -5.5060    -3.4120    -0.4360 hc         1 RMC       0.046033
     40 HAY2        -6.5840    -2.0400    -0.2330 hc         1 RMC       0.046033
     41 HAY3        -5.4870    -2.0900    -1.6120 hc         1 RMC       0.046033
     42 HBA1        -3.9050    -1.3960     2.3440 hc         1 RMC       0.046033
     43 HBA2        -5.6240    -1.7380     2.1480 hc         1 RMC       0.046033
     44 HBA3        -4.4390    -3.0230     1.9040 hc         1 RMC       0.046033
     45 HAX         -3.2440    -3.8970    -0.7390 h5         1 RMC       0.061800
     46 HAD1         2.8580    -0.5400    -2.5270 h1         1 RMC       0.065700
     47 HAD2         2.0120     0.7120    -1.6240 h1         1 RMC       0.065700
     48 HAG          6.4960    -1.6810     0.1490 ha         1 RMC       0.111500
     49 HAH          5.9670    -0.8370     2.4180 ha         1 RMC       0.111000
     50 HAF          3.7910     0.2640     2.8390 ha         1 RMC       0.111500
     51 HAC          2.1540     0.5120     1.0120 ha         1 RMC       0.118500
     52 HBB1         2.3200    -2.9830    -1.0600 h1         1 RMC       0.053033
     53 HBB2         0.6590    -3.2150    -1.6130 h1         1 RMC       0.053033
     54 HBB3         1.9020    -2.6790    -2.7480 h1         1 RMC       0.053033
     55 HAE          4.8600    -1.4240    -1.6750 ha         1 RMC       0.118500
@<TRIPOS>BOND
     1     1     2 1   
     2     1    28 1   
     3     2     3 1   
     4     2    29 1   
     5     2    30 1   
     6     3     4 1   
     7     3     6 1   
     8     3    31 1   
     9     4     5 1   
    10     4    32 1   
    11     4    33 1   
    12     5    34 1   
    13     5    35 1   
    14     5    36 1   
    15     6     7 1   
    16     6    37 1   
    17     7     8 ar  
    18     7    17 ar  
    19     8     9 ar  
    20     9    10 1   
    21     9    15 ar  
    22    10    11 1   
    23    10    14 1   
    24    11    12 1   
    25    11    13 1   
    26    11    38 1   
    27    12    39 1   
    28    12    40 1   
    29    12    41 1   
    30    13    42 1   
    31    13    43 1   
    32    13    44 1   
    33    14    16 2   
    34    14    45 1   
    35    15    16 1   
    36    15    18 ar  
    37    17    18 ar  
    38    18    19 1   
    39    19    20 1   
    40    19    27 1   
    41    20    26 1   
    42    20    46 1   
    43    20    47 1   
    44    21    22 ar  
    45    21    26 ar  
    46    21    55 1   
    47    22    23 ar  
    48    22    48 1   
    49    23    24 ar  
    50    23    49 1   
    51    24    25 ar  
    52    24    50 1   
    53    25    26 ar  
    54    25    51 1   
    55    27    52 1   
    56    27    53 1   
    57    27    54 1   
@<TRIPOS>SUBSTRUCTURE
     1 RMC         1 TEMP              0 ****  ****    0 ROOT
