@<TRIPOS>MOLECULE
RMC
   55    57     1     0     0
SMALL
No Charge or Current Charge


@<TRIPOS>ATOM
      1 OAP         -1.9510     4.7820    -1.0370 oh         1 RMC      -0.664000
      2 CAQ         -0.6640     4.2290    -1.3910 c3         1 RMC       0.134600
      3 CAR         -0.0090     3.4490    -0.2040 c3         1 RMC       0.251500
      4 CAK          0.3140     4.3680     1.0040 c3         1 RMC      -0.083400
      5 CAI          1.1870     3.6980     2.0890 c3         1 RMC      -0.089100
      6 NAS         -0.8880     2.3420     0.2340 nu         1 RMC      -0.918100
      7 CAT         -0.8540     1.0270    -0.1850 ca         1 RMC       0.444900
      8 NAU         -1.9230     0.2940     0.1620 nb         1 RMC      -0.300000
      9 CAV         -1.8960    -0.9900    -0.2320 ca         1 RMC       0.166500
     10 NAW         -2.7760    -2.0200    -0.0580 na         1 RMC      -0.288300
     11 CAZ         -4.0540    -1.8810     0.6660 c3         1 RMC       0.095300
     12 CAY         -5.2570    -2.2090    -0.2440 c3         1 RMC      -0.107100
     13 CBA         -4.0640    -2.7240     1.9570 c3         1 RMC      -0.107100
     14 CAX         -2.2430    -3.1610    -0.6550 cc         1 RMC       0.389700
     15 CAN         -0.8470    -1.5260    -0.9420 ca         1 RMC      -0.132600
     16 NAO         -1.0480    -2.8930    -1.2120 nd         1 RMC      -0.552100
     17 NAL          0.2220     0.6190    -0.8770 nb         1 RMC      -0.379000
     18 CAM          0.2450    -0.6720    -1.2660 ca         1 RMC       0.494900
     19 NAJ          1.4010    -1.0800    -1.9850 nh         1 RMC      -0.763300
     20 CAD          2.7270    -0.4740    -1.7100 c3         1 RMC       0.269100
     21 CAE          3.3110    -1.7790     0.3970 ca         1 RMC      -0.095000
     22 CAG          3.6840    -1.8390     1.7520 ca         1 RMC      -0.115500
     23 CAH          3.8860    -0.6530     2.4780 ca         1 RMC      -0.105000
     24 CAF          3.7160     0.5910     1.8490 ca         1 RMC      -0.115500
     25 CAC          3.3440     0.6520     0.4950 ca         1 RMC      -0.095000
     26 CAB          3.1390    -0.5340    -0.2400 ca         1 RMC      -0.112300
     27 CBB          1.3530    -2.2010    -2.9500 c3         1 RMC       0.200100
     28 HAP         -2.3130     5.2070    -1.8470 ho         1 RMC       0.443000
     29 HAQ1         0.0180     5.0290    -1.7070 h1         1 RMC       0.029200
     30 HAQ2        -0.7730     3.5410    -2.2410 h1         1 RMC       0.029200
     31 HAR          0.9520     3.0550    -0.5640 h1         1 RMC       0.078700
     32 HAK1        -0.6170     4.7280     1.4580 hc         1 RMC       0.049700
     33 HAK2         0.8470     5.2550     0.6380 hc         1 RMC       0.049700
     34 HAI1         1.3950     4.4050     2.9010 hc         1 RMC       0.035033
     35 HAI2         0.6810     2.8250     2.5190 hc         1 RMC       0.035033
     36 HAI3         2.1440     3.3710     1.6680 hc         1 RMC       0.035033
     37 HAS         -1.7920     2.6260     0.6050 hn         1 RMC       0.506000
     38 HAZ         -4.1610    -0.8300     0.9680 h1         1 RMC       0.086700
     39 HAY1        -5.2330    -3.2570    -0.5660 hc         1 RMC       0.046033
     40 HAY2        -6.2000    -2.0350     0.2870 hc         1 RMC       0.046033
     41 HAY3        -5.2470    -1.5730    -1.1370 hc         1 RMC       0.046033
     42 HBA1        -3.2240    -2.4450     2.6040 hc         1 RMC       0.046033
     43 HBA2        -4.9920    -2.5610     2.5180 hc         1 RMC       0.046033
     44 HBA3        -3.9830    -3.7940     1.7300 hc         1 RMC       0.046033
     45 HAX         -2.7520    -4.1180    -0.6490 h5         1 RMC       0.061800
     46 HAD1         3.5050    -0.9830    -2.2950 h1         1 RMC       0.065700
     47 HAD2         2.7280     0.5720    -2.0480 h1         1 RMC       0.065700
     48 HAG          3.8130    -2.8030     2.2380 ha         1 RMC       0.111500
     49 HAH          4.1730    -0.6990     3.5260 ha         1 RMC       0.111000
     50 HAF          3.8720     1.5100     2.4110 ha         1 RMC       0.111500
     51 HAC          3.2110     1.6200     0.0180 ha         1 RMC       0.118500
     52 HBB1         1.4990    -3.1610    -2.4360 h1         1 RMC       0.053033
     53 HBB2         0.3880    -2.2220    -3.4730 h1         1 RMC       0.053033
     54 HBB3         2.1350    -2.0950    -3.7150 h1         1 RMC       0.053033
     55 HAE          3.1510    -2.7010    -0.1580 ha         1 RMC       0.118500
@<TRIPOS>BOND
     1     1     2 1   
     2     1    28 1   
     3     2     3 1   
     4     2    29 1   
     5     2    30 1   
     6     3     4 1   
     7     3     6 1   
     8     3    31 1   
     9     4     5 1   
    10     4    32 1   
    11     4    33 1   
    12     5    34 1   
    13     5    35 1   
    14     5    36 1   
    15     6     7 1   
    16     6    37 1   
    17     7     8 ar  
    18     7    17 ar  
    19     8     9 ar  
    20     9    10 1   
    21     9    15 ar  
    22    10    11 1   
    23    10    14 1   
    24    11    12 1   
    25    11    13 1   
    26    11    38 1   
    27    12    39 1   
    28    12    40 1   
    29    12    41 1   
    30    13    42 1   
    31    13    43 1   
    32    13    44 1   
    33    14    16 2   
    34    14    45 1   
    35    15    16 1   
    36    15    18 ar  
    37    17    18 ar  
    38    18    19 1   
    39    19    20 1   
    40    19    27 1   
    41    20    26 1   
    42    20    46 1   
    43    20    47 1   
    44    21    22 ar  
    45    21    26 ar  
    46    21    55 1   
    47    22    23 ar  
    48    22    48 1   
    49    23    24 ar  
    50    23    49 1   
    51    24    25 ar  
    52    24    50 1   
    53    25    26 ar  
    54    25    51 1   
    55    27    52 1   
    56    27    53 1   
    57    27    54 1   
@<TRIPOS>SUBSTRUCTURE
     1 RMC         1 TEMP              0 ****  ****    0 ROOT
