@<TRIPOS>MOLECULE
RME
   48    50     1     0     0
SMALL
No Charge or Current Charge


@<TRIPOS>ATOM
      1 CAA         16.4090    64.3740    46.9470 ca         1 RME      -0.017300
      2 CAB         16.9170    64.2710    48.2530 ca         1 RME      -0.193000
      3 CAC         17.8960    65.1820    48.6840 ca         1 RME       0.373900
      4 CAE         17.9200    66.2400    46.6480 ca         1 RME       0.592900
      5 CAF         16.9270    65.3910    46.1300 ca         1 RME      -0.176000
      6 CAH         18.6180    67.7190    44.7200 ca         1 RME       0.720900
      7 CAJ         18.3070    67.2590    42.5170 ca         1 RME       0.735900
      8 CAK         18.8440    68.4870    42.1190 ca         1 RME      -0.380200
      9 CAL         19.3060    69.3670    43.1140 ca         1 RME       0.068000
     10 CAM         19.1850    68.9600    44.4450 ca         1 RME      -0.295000
     11 CAO         16.9370    65.1950    41.9160 c3         1 RME       0.229800
     12 CAP         16.5580    64.5010    40.5800 c3         1 RME       0.147800
     13 CAR         16.1170    64.7410    38.1420 c6         1 RME       0.129300
     14 CAS         15.8290    65.7420    36.9840 c6         1 RME       0.151100
     15 CAU         14.7800    67.2750    38.5190 c6         1 RME       0.151100
     16 CAV         15.0460    66.3060    39.7090 c6         1 RME       0.129300
     17 CAW         15.3410    63.4210    46.4370 c3         1 RME      -0.052800
     18 NAD         18.3910    66.1610    47.8940 nb         1 RME      -0.733000
     19 NAG         18.5100    67.2880    46.0100 nu         1 RME      -0.896800
     20 NAI         18.1980    66.8770    43.7870 nb         1 RME      -0.854000
     21 NAN         17.8550    66.3110    41.6400 nu         1 RME      -0.888100
     22 NAQ         16.2450    65.4390    39.4590 n3         1 RME      -0.729600
     23 NAX         18.9610    68.8690    40.6970 no         1 RME       0.699200
     24 OAT         14.6520    66.5320    37.2820 os         1 RME      -0.457000
     25 OAY         19.8120    69.7130    40.3990 o          1 RME      -0.436500
     26 OAZ         18.1420    68.4130    39.8920 o          1 RME      -0.436500
     27 HAB         16.5580    63.5040    48.9330 ha         1 RME       0.126000
     28 HAC         18.2970    65.1250    49.6960 h4         1 RME       0.022100
     29 HAF         16.5530    65.5210    45.1220 ha         1 RME       0.154000
     30 HAL         19.7410    70.3370    42.8730 ha         1 RME       0.152000
     31 HAM         19.5240    69.6040    45.2500 ha         1 RME       0.136000
     32 HAP         16.0220    65.5730    42.3920 h1         1 RME       0.055200
     33 HAO         17.3960    64.4630    42.5960 h1         1 RME       0.055200
     34 HAR         15.7120    63.8230    40.7630 h1         1 RME       0.046200
     35 HAQ         17.4110    63.8720    40.2900 h1         1 RME       0.046200
     36 HAS         17.0420    64.1920    37.9110 h1         1 RME       0.041950
     37 HAV         15.6680    65.1930    36.0460 h1         1 RME       0.057950
     38 HAU         16.6910    66.4110    36.8460 h1         1 RME       0.057950
     39 HAW         15.6090    67.9920    38.4290 h1         1 RME       0.057950
     40 HAX         13.8550    67.8410    38.6970 h1         1 RME       0.057950
     41 HAY         15.1810    66.9070    40.6190 h1         1 RME       0.041950
     42 HAZ         14.1520    65.6840    39.8630 h1         1 RME       0.041950
     43 HA1         15.7950    62.5660    45.9220 hc         1 RME       0.049033
     44 HA2         14.7270    63.0310    47.2580 hc         1 RME       0.049033
     45 HA0         14.6670    63.9200    45.7300 hc         1 RME       0.049033
     46 HAG         19.0580    67.8320    46.6570 hn         1 RME       0.518000
     47 HAN         17.7710    66.6670    40.6850 hn         1 RME       0.559000
     48 HAT         15.3030    64.0020    38.1790 h1         1 RME       0.041950
@<TRIPOS>BOND
     1     1     2 ar  
     2     1     5 ar  
     3     1    17 1   
     4     2     3 ar  
     5     2    27 1   
     6     3    18 ar  
     7     3    28 1   
     8     4     5 ar  
     9     4    18 ar  
    10     4    19 1   
    11     5    29 1   
    12     6    10 ar  
    13     6    19 1   
    14     6    20 ar  
    15     7     8 ar  
    16     7    20 ar  
    17     7    21 1   
    18     8     9 ar  
    19     8    23 1   
    20     9    10 ar  
    21     9    30 1   
    22    10    31 1   
    23    11    12 1   
    24    11    21 1   
    25    11    32 1   
    26    11    33 1   
    27    12    22 1   
    28    12    34 1   
    29    12    35 1   
    30    13    14 1   
    31    13    22 1   
    32    13    36 1   
    33    13    48 1   
    34    14    24 1   
    35    14    37 1   
    36    14    38 1   
    37    15    16 1   
    38    15    24 1   
    39    15    39 1   
    40    15    40 1   
    41    16    22 1   
    42    16    41 1   
    43    16    42 1   
    44    17    43 1   
    45    17    44 1   
    46    17    45 1   
    47    19    46 1   
    48    21    47 1   
    49    23    25 1   
    50    23    26 1   
@<TRIPOS>SUBSTRUCTURE
     1 RME         1 TEMP              0 ****  ****    0 ROOT
