@<TRIPOS>MOLECULE
RME
   48    50     1     0     0
SMALL
abcg2


@<TRIPOS>ATOM
      1 CAA         16.4030    64.4080    46.6420 ca         1 RME      -0.017300
      2 CAB         16.4480    64.4710    48.0360 ca         1 RME      -0.193000
      3 CAC         17.1890    65.4780    48.6330 ca         1 RME       0.373900
      4 CAE         17.8230    66.3450    46.6130 ca         1 RME       0.592900
      5 CAF         17.1040    65.3680    45.9190 ca         1 RME      -0.176000
      6 CAH         18.7750    67.6950    44.7090 ca         1 RME       0.720900
      7 CAJ         18.4230    67.2800    42.4540 ca         1 RME       0.735900
      8 CAK         19.1940    68.4380    42.1040 ca         1 RME      -0.380200
      9 CAL         19.7680    69.1930    43.1430 ca         1 RME       0.068000
     10 CAM         19.5760    68.8410    44.4440 ca         1 RME      -0.295000
     11 CAO         17.0140    65.3430    41.9000 c3         1 RME       0.229800
     12 CAP         16.6320    64.5970    40.6300 c3         1 RME       0.147800
     13 CAR         16.0120    64.8020    38.3040 c6         1 RME       0.129300
     14 CAS         15.5370    65.7700    37.2370 c6         1 RME       0.151100
     15 CAU         14.3740    67.0230    38.8420 c6         1 RME       0.151100
     16 CAV         14.8270    66.0820    39.9440 c6         1 RME       0.129300
     17 CAW         15.6430    63.3260    45.9320 c3         1 RME      -0.052800
     18 NAD         17.8670    66.4000    47.9510 nb         1 RME      -0.733000
     19 NAG         18.5610    67.3670    46.0140 nu         1 RME      -0.896800
     20 NAI         18.2380    66.9580    43.7480 nb         1 RME      -0.854000
     21 NAN         17.8620    66.4690    41.5560 nu         1 RME      -0.888100
     22 NAQ         16.1130    65.4810    39.5930 n3         1 RME      -0.729600
     23 NAX         19.3960    68.8590    40.7770 no         1 RME       0.699200
     24 OAT         14.2820    66.3520    37.5870 os         1 RME      -0.457000
     25 OAY         20.0880    69.8640    40.5540 o          1 RME      -0.436500
     26 OAZ         18.8720    68.2200    39.8390 o          1 RME      -0.436500
     27 HAB         15.9130    63.7530    48.6440 ha         1 RME       0.126000
     28 HAC         17.2410    65.5520    49.7140 h4         1 RME       0.022100
     29 HAF         17.0950    65.3700    44.8440 ha         1 RME       0.154000
     30 HAL         20.3580    70.0590    42.8860 ha         1 RME       0.152000
     31 HAM         20.0060    69.4100    45.2560 ha         1 RME       0.136000
     32 HAP         16.1310    65.6930    42.4410 h1         1 RME       0.055200
     33 HAO         17.5430    64.6620    42.5690 h1         1 RME       0.055200
     34 HAR         15.9120    63.8070    40.8970 h1         1 RME       0.046200
     35 HAQ         17.5190    64.1060    40.2240 h1         1 RME       0.046200
     36 HAS         16.9950    64.4120    38.0300 h1         1 RME       0.041950
     37 HAV         15.3900    65.2530    36.2890 h1         1 RME       0.057950
     38 HAU         16.2820    66.5640    37.0970 h1         1 RME       0.057950
     39 HAW         15.0800    67.8600    38.7590 h1         1 RME       0.057950
     40 HAX         13.3820    67.4180    39.0620 h1         1 RME       0.057950
     41 HAY         14.9250    66.6500    40.8700 h1         1 RME       0.041950
     42 HAZ         14.0600    65.3050    40.1040 h1         1 RME       0.041950
     43 HA1         16.2780    62.4460    45.7990 hc         1 RME       0.049033
     44 HA2         14.7700    63.0160    46.5070 hc         1 RME       0.049033
     45 HA0         15.3220    63.6540    44.9430 hc         1 RME       0.049033
     46 HAG         18.9980    67.9730    46.6950 hn         1 RME       0.518000
     47 HAN         17.9050    66.7490    40.5860 hn         1 RME       0.559000
     48 HAT         15.3130    63.9500    38.3580 h1         1 RME       0.041950
@<TRIPOS>BOND
     1     1     2 ar  
     2     1     5 ar  
     3     1    17 1   
     4     2     3 ar  
     5     2    27 1   
     6     3    18 ar  
     7     3    28 1   
     8     4     5 ar  
     9     4    18 ar  
    10     4    19 1   
    11     5    29 1   
    12     6    10 ar  
    13     6    19 1   
    14     6    20 ar  
    15     7     8 ar  
    16     7    20 ar  
    17     7    21 1   
    18     8     9 ar  
    19     8    23 1   
    20     9    10 ar  
    21     9    30 1   
    22    10    31 1   
    23    11    12 1   
    24    11    21 1   
    25    11    32 1   
    26    11    33 1   
    27    12    22 1   
    28    12    34 1   
    29    12    35 1   
    30    13    14 1   
    31    13    22 1   
    32    13    36 1   
    33    13    48 1   
    34    14    24 1   
    35    14    37 1   
    36    14    38 1   
    37    15    16 1   
    38    15    24 1   
    39    15    39 1   
    40    15    40 1   
    41    16    22 1   
    42    16    41 1   
    43    16    42 1   
    44    17    43 1   
    45    17    44 1   
    46    17    45 1   
    47    19    46 1   
    48    21    47 1   
    49    23    25 1   
    50    23    26 1   
@<TRIPOS>SUBSTRUCTURE
     1 RME         1 TEMP              0 ****  ****    0 ROOT
