@<TRIPOS>MOLECULE
RMF
   54    59     1     0     0
SMALL
No Charge or Current Charge


@<TRIPOS>ATOM
      1 C4         -60.8070    23.7670    -6.8490 ca         1 RMF       0.174500
      2 C5         -62.0500    23.2860    -6.5090 ca         1 RMF      -0.126600
      3 C6         -62.0940    23.3540    -8.6790 cc         1 RMF       0.410700
      4 C7         -59.8790    24.2060    -9.1350 cc         1 RMF      -0.116200
      5 C8         -59.9120    24.2450   -10.5340 cc         1 RMF       0.236900
      6 C1         -63.9010    21.9150    -3.4660 c3         1 RMF       0.233500
      7 C2         -62.3390    23.1210    -5.1430 ca         1 RMF       0.484900
      8 C3         -60.2420    23.9010    -4.6340 ca         1 RMF       0.437900
      9 C9         -58.6680    24.6490    -8.7060 cd         1 RMF      -0.145000
     10 O1         -57.3290    24.8160    -1.5690 os         1 RMF      -0.455000
     11 C11        -59.6360    24.1560    -2.1710 c6         1 RMF       0.186300
     12 C12        -58.7240    25.0330    -1.2650 c6         1 RMF       0.120100
     13 C13        -57.0080    25.1550    -2.9360 c6         1 RMF       0.120100
     14 C14        -57.8200    24.2780    -3.9360 c6         1 RMF       0.186300
     15 C15        -63.5120    22.6380    -2.1750 cc         1 RMF       0.416800
     16 C16        -62.3970    23.1060    -0.3160 ca         1 RMF      -0.076200
     17 C17        -63.3460    24.0590    -0.5500 ca         1 RMF       0.077400
     18 C18        -61.5150    23.1580     0.7690 ca         1 RMF      -0.107000
     19 C19        -61.6310    24.2520     1.6510 ca         1 RMF       0.138000
     20 C20        -62.6190    25.2490     1.4240 ca         1 RMF       0.100000
     21 C21        -63.4870    25.1530     0.3140 ca         1 RMF      -0.033000
     22 N1         -63.5790    22.6400    -4.7340 nu         1 RMF      -0.914100
     23 N10        -64.0680    23.7800    -1.7070 nd         1 RMF      -0.558100
     24 N2         -61.4310    23.4260    -4.2050 nb         1 RMF      -0.348000
     25 N3         -59.8810    24.0850    -5.9250 nb         1 RMF      -0.287000
     26 N4         -62.8700    23.0210    -7.6260 nd         1 RMF      -0.542100
     27 N5         -60.8570    23.8020    -8.2150 na         1 RMF      -0.155100
     28 N6         -59.2980    24.2610    -3.6370 nh         1 RMF      -0.764300
     29 N7         -58.7810    24.6920   -11.0440 nd         1 RMF      -0.510800
     30 N8         -58.0060    24.9440    -9.9070 na         1 RMF       0.123800
     31 N9         -62.4960    22.1980    -1.3220 na         1 RMF      -0.312600
     32 Cl1        -60.5280    24.3610     3.0220 cl         1 RMF      -0.178000
     33 Cl2        -62.7790    26.6280     2.5130 cl         1 RMF      -0.180000
     34 H61        -62.3600    23.2950    -9.7270 h5         1 RMF       0.069800
     35 H81        -60.7190    23.9640   -11.1970 h4         1 RMF       0.043100
     36 H103       -56.0290    24.7610   -10.6140 h1         1 RMF       0.059033
     37 H101       -56.6640    26.4340   -10.5530 h1         1 RMF       0.059033
     38 H102       -56.1960    25.5990    -9.0420 h1         1 RMF       0.059033
     39 H11        -64.9800    21.7130    -3.4230 h1         1 RMF       0.064700
     40 H12        -63.3990    20.9390    -3.4710 h1         1 RMF       0.064700
     41 H92        -58.2230    24.7820    -7.7280 h4         1 RMF       0.179000
     42 H112       -60.6710    24.4780    -1.9910 h1         1 RMF       0.070950
     43 H111       -59.5580    23.1090    -1.8420 h1         1 RMF       0.070950
     44 H122       -58.9650    26.0950    -1.4150 h1         1 RMF       0.057200
     45 H121       -58.9070    24.7900    -0.2090 h1         1 RMF       0.057200
     46 H132       -55.9320    25.0060    -3.1020 h1         1 RMF       0.057200
     47 H131       -57.2330    26.2180    -3.1070 h1         1 RMF       0.057200
     48 H141       -57.4230    23.2530    -3.9050 h1         1 RMF       0.070950
     49 H142       -57.6200    24.6680    -4.9440 h1         1 RMF       0.070950
     50 H181       -60.7620    22.3890     0.9260 ha         1 RMF       0.136000
     51 H211       -64.2400    25.9130     0.1280 ha         1 RMF       0.150000
     52 H13        -64.1990    22.4730    -5.5290 hn         1 RMF       0.528000
     53 H91        -61.9310    21.3700    -1.4560 hn         1 RMF       0.361000
     54 C10        -56.6380    25.4670   -10.0370 c3         1 RMF       0.078900
@<TRIPOS>BOND
     1     1     2 ar  
     2     1    25 ar  
     3     1    27 1   
     4     2     7 ar  
     5     2    26 1   
     6     3    26 2   
     7     3    27 1   
     8     3    34 1   
     9     4     5 1   
    10     4     9 2   
    11     4    27 1   
    12     5    29 2   
    13     5    35 1   
    14     6    15 1   
    15     6    22 1   
    16     6    39 1   
    17     6    40 1   
    18     7    22 1   
    19     7    24 ar  
    20     8    24 ar  
    21     8    25 ar  
    22     8    28 1   
    23     9    30 1   
    24     9    41 1   
    25    10    12 1   
    26    10    13 1   
    27    11    12 1   
    28    11    28 1   
    29    11    42 1   
    30    11    43 1   
    31    12    44 1   
    32    12    45 1   
    33    13    14 1   
    34    13    46 1   
    35    13    47 1   
    36    14    28 1   
    37    14    48 1   
    38    14    49 1   
    39    15    23 2   
    40    15    31 1   
    41    16    17 ar  
    42    16    18 ar  
    43    16    31 1   
    44    17    21 ar  
    45    17    23 1   
    46    18    19 ar  
    47    18    50 1   
    48    19    20 ar  
    49    19    32 1   
    50    20    21 ar  
    51    20    33 1   
    52    21    51 1   
    53    22    52 1   
    54    29    30 1   
    55    30    54 1   
    56    31    53 1   
    57    36    54 1   
    58    37    54 1   
    59    38    54 1   
@<TRIPOS>SUBSTRUCTURE
     1 RMF         1 TEMP              0 ****  ****    0 ROOT
