@<TRIPOS>MOLECULE
RMF
   54    59     1     0     0
SMALL
abcg2


@<TRIPOS>ATOM
      1 C4         -60.8660    23.5580    -6.6690 ca         1 RMF       0.174500
      2 C5         -62.1320    23.0910    -6.3240 ca         1 RMF      -0.126600
      3 C6         -62.3080    23.7840    -8.3340 cc         1 RMF       0.410700
      4 C7         -59.9800    24.5490    -8.7830 cc         1 RMF      -0.116200
      5 C8         -59.9890    24.6750   -10.1850 cc         1 RMF       0.236900
      6 C1         -63.5830    21.6400    -3.1780 c3         1 RMF       0.233500
      7 C2         -62.2570    22.5820    -5.0150 ca         1 RMF       0.484900
      8 C3         -60.0120    23.0730    -4.6690 ca         1 RMF       0.437900
      9 C9         -58.7680    25.0800    -8.3760 cd         1 RMF      -0.145000
     10 O1         -57.9130    24.8430    -1.8810 os         1 RMF      -0.455000
     11 C11        -59.1550    22.8050    -2.3660 c6         1 RMF       0.186300
     12 C12        -59.1230    24.1310    -1.6180 c6         1 RMF       0.120100
     13 C13        -57.7350    25.0830    -3.2780 c6         1 RMF       0.120100
     14 C14        -57.7300    23.7790    -4.0640 c6         1 RMF       0.186300
     15 C15        -63.2280    22.6710    -2.1460 cc         1 RMF       0.416800
     16 C16        -62.3620    23.4750    -0.2770 ca         1 RMF      -0.076200
     17 C17        -62.9410    24.4990    -1.0590 ca         1 RMF       0.077400
     18 C18        -61.7210    23.7280     0.9250 ca         1 RMF      -0.107000
     19 C19        -61.6610    25.0510     1.3390 ca         1 RMF       0.138000
     20 C20        -62.2340    26.0840     0.5720 ca         1 RMF       0.100000
     21 C21        -62.8790    25.8200    -0.6270 ca         1 RMF      -0.033000
     22 N1         -63.4260    22.1120    -4.5340 nu         1 RMF      -0.914100
     23 N10        -63.4830    23.9580    -2.2140 nd         1 RMF      -0.558100
     24 N2         -61.1850    22.5710    -4.2210 nb         1 RMF      -0.348000
     25 N3         -59.7850    23.5850    -5.8930 nb         1 RMF      -0.287000
     26 N4         -63.0170    23.2430    -7.3780 nd         1 RMF      -0.542100
     27 N5         -60.9860    24.0020    -7.9730 na         1 RMF      -0.155100
     28 N6         -58.9580    23.0380    -3.7950 nh         1 RMF      -0.764300
     29 N7         -58.8630    25.2470   -10.6090 nd         1 RMF      -0.510800
     30 N8         -58.1370    25.4800    -9.5030 na         1 RMF       0.123800
     31 N9         -62.5730    22.3230    -0.9980 na         1 RMF      -0.312600
     32 CL1        -60.8400    25.4060     2.8350 cl         1 RMF      -0.178000
     33 CL2        -62.1400    27.7410     1.1120 cl         1 RMF      -0.180000
     34 H61        -62.6700    24.0540    -9.3130 h5         1 RMF       0.069800
     35 H81        -60.7510    24.3770   -10.8870 h4         1 RMF       0.043100
     36 H103       -56.1730    25.4710   -10.2170 h1         1 RMF       0.059033
     37 H101       -56.9080    27.0830   -10.0430 h1         1 RMF       0.059033
     38 H102       -56.4090    26.1730    -8.6000 h1         1 RMF       0.059033
     39 H11        -64.6250    21.3440    -3.0540 h1         1 RMF       0.064700
     40 H12        -62.9670    20.7550    -3.0020 h1         1 RMF       0.064700
     41 H92        -58.3310    25.1830    -7.4000 h4         1 RMF       0.179000
     42 H112       -60.1000    22.2980    -2.2060 h1         1 RMF       0.070950
     43 H111       -58.3430    22.1650    -2.0100 h1         1 RMF       0.070950
     44 H122       -59.9840    24.7440    -1.9120 h1         1 RMF       0.057200
     45 H121       -59.1610    23.9680    -0.5410 h1         1 RMF       0.057200
     46 H132       -56.7830    25.6030    -3.3850 h1         1 RMF       0.057200
     47 H131       -58.5400    25.7320    -3.6450 h1         1 RMF       0.057200
     48 H141       -56.8830    23.1630    -3.7480 h1         1 RMF       0.070950
     49 H142       -57.6450    23.9750    -5.1280 h1         1 RMF       0.070950
     50 H181       -61.2700    22.9440     1.5170 ha         1 RMF       0.136000
     51 H211       -63.3070    26.6250    -1.2080 ha         1 RMF       0.150000
     52 H13        -64.2450    22.1970    -5.1130 hn         1 RMF       0.528000
     53 H91        -62.2460    21.3990    -0.7610 hn         1 RMF       0.361000
     54 C10        -56.8250    26.0910    -9.6010 c3         1 RMF       0.078900
@<TRIPOS>BOND
     1     1     2 ar  
     2     1    25 ar  
     3     1    27 1   
     4     2     7 ar  
     5     2    26 1   
     6     3    26 2   
     7     3    27 1   
     8     3    34 1   
     9     4     5 1   
    10     4     9 2   
    11     4    27 1   
    12     5    29 2   
    13     5    35 1   
    14     6    15 1   
    15     6    22 1   
    16     6    39 1   
    17     6    40 1   
    18     7    22 1   
    19     7    24 ar  
    20     8    24 ar  
    21     8    25 ar  
    22     8    28 1   
    23     9    30 1   
    24     9    41 1   
    25    10    12 1   
    26    10    13 1   
    27    11    12 1   
    28    11    28 1   
    29    11    42 1   
    30    11    43 1   
    31    12    44 1   
    32    12    45 1   
    33    13    14 1   
    34    13    46 1   
    35    13    47 1   
    36    14    28 1   
    37    14    48 1   
    38    14    49 1   
    39    15    23 2   
    40    15    31 1   
    41    16    17 ar  
    42    16    18 ar  
    43    16    31 1   
    44    17    21 ar  
    45    17    23 1   
    46    18    19 ar  
    47    18    50 1   
    48    19    20 ar  
    49    19    32 1   
    50    20    21 ar  
    51    20    33 1   
    52    21    51 1   
    53    22    52 1   
    54    29    30 1   
    55    30    54 1   
    56    31    53 1   
    57    36    54 1   
    58    37    54 1   
    59    38    54 1   
@<TRIPOS>SUBSTRUCTURE
     1 RMF         1 TEMP              0 ****  ****    0 ROOT
