@<TRIPOS>MOLECULE
RMG
   53    56     1     0     0
SMALL
abcg2


@<TRIPOS>ATOM
      1 C10         19.7860   -11.2660    42.2210 c6         1 RMG       0.165800
      2 C11         20.9450   -12.2290    42.4280 c6         1 RMG      -0.077400
      3 C12         21.3160   -12.3260    43.9020 c6         1 RMG      -0.074400
      4 C13         21.5660   -10.9320    44.4600 c6         1 RMG      -0.077400
      5 C14         20.3790   -10.0210    44.1830 c6         1 RMG       0.165800
      6 C02         20.5700   -11.6450    37.9660 ca         1 RMG       0.435900
      7 N03         20.4610   -10.4560    38.5600 nb         1 RMG      -0.303000
      8 C04         20.0640    -9.4140    37.8520 ca         1 RMG       0.289300
      9 S05         19.9790    -7.8280    38.6100 ss         1 RMG      -0.329300
     10 C06         20.1550    -8.1990    40.3740 c3         1 RMG       0.048600
     11 C07         18.8580    -8.6720    41.0120 c3         1 RMG      -0.067400
     12 N09         20.0840    -9.9530    42.7630 n3         1 RMG      -0.720600
     13 N15         19.7260    -9.4030    36.5770 nb         1 RMG      -0.174000
     14 C16         19.8570   -10.5870    35.9830 ca         1 RMG       0.168300
     15 C17         20.2960   -11.7750    36.5750 ca         1 RMG      -0.232800
     16 C18         20.3560   -12.8700    35.6340 cc         1 RMG      -0.037400
     17 C19         19.9330   -12.4920    34.4000 cd         1 RMG      -0.080600
     18 C20         19.8650   -13.3270    33.1610 c3         1 RMG      -0.005200
     19 C21         21.2280   -13.8480    32.7030 c3         1 RMG      -0.068400
     20 C22         21.7950   -14.9700    33.5650 c3         1 RMG      -0.071400
     21 C23         22.0960   -14.6180    35.0180 c3         1 RMG      -0.069400
     22 C24         20.8700   -14.2640    35.8680 c3         1 RMG      -0.008200
     23 S25         19.4840   -10.8160    34.3180 ss         1 RMG      -0.103900
     24 H1          18.8730   -11.6890    42.6800 h1         1 RMG       0.031200
     25 H2          19.5840   -11.1710    41.1530 h1         1 RMG       0.031200
     26 H3          20.6710   -13.2120    42.0350 hc         1 RMG       0.043950
     27 H4          21.8110   -11.8770    41.8560 hc         1 RMG       0.043950
     28 H5          22.1920   -12.9640    44.0400 hc         1 RMG       0.038700
     29 H6          20.4940   -12.7960    44.4520 hc         1 RMG       0.038700
     30 H7          22.4600   -10.5050    43.9960 hc         1 RMG       0.043950
     31 H8          21.7500   -10.9690    45.5360 hc         1 RMG       0.043950
     32 H9          20.5960    -9.0120    44.5420 h1         1 RMG       0.031200
     33 H10         19.5060   -10.3800    44.7600 h1         1 RMG       0.031200
     34 H11         21.0510   -12.4700    39.7410 hn         1 RMG       0.494000
     35 H12         20.8600   -13.6150    38.4920 hn         1 RMG       0.494000
     36 H13         20.9510    -8.9300    40.5020 h1         1 RMG       0.087700
     37 H14         20.4880    -7.2630    40.8270 h1         1 RMG       0.087700
     38 H15         18.0990    -7.8930    40.9200 hc         1 RMG       0.049700
     39 H16         18.4730    -9.5370    40.4690 hc         1 RMG       0.049700
     40 H17         19.2870    -8.0640    43.0160 h1         1 RMG       0.029700
     41 H18         18.0600    -9.3210    42.9000 h1         1 RMG       0.029700
     42 H20         19.4140   -12.7460    32.3540 hc         1 RMG       0.049200
     43 H21         19.1860   -14.1710    33.3280 hc         1 RMG       0.049200
     44 H22         21.9350   -13.0140    32.6570 hc         1 RMG       0.044200
     45 H23         21.1230   -14.2210    31.6810 hc         1 RMG       0.044200
     46 H24         21.0990   -15.8170    33.5460 hc         1 RMG       0.037200
     47 H25         22.7160   -15.3280    33.0990 hc         1 RMG       0.037200
     48 H26         22.5830   -15.4820    35.4770 hc         1 RMG       0.043700
     49 H27         22.8170   -13.7970    35.0670 hc         1 RMG       0.043700
     50 H28         20.0740   -14.9900    35.6740 hc         1 RMG       0.038700
     51 H29         21.1430   -14.4140    36.9090 hc         1 RMG       0.038700
     52 C08         19.0320    -8.9910    42.4920 c3         1 RMG       0.170800
     53 N01         20.9670   -12.6540    38.7550 nv         1 RMG      -1.070900
@<TRIPOS>BOND
     1     1     2 1   
     2     1    12 1   
     3     1    24 1   
     4     1    25 1   
     5     2     3 1   
     6     2    26 1   
     7     2    27 1   
     8     3     4 1   
     9     3    28 1   
    10     3    29 1   
    11     4     5 1   
    12     4    30 1   
    13     4    31 1   
    14     5    12 1   
    15     5    32 1   
    16     5    33 1   
    17     6     7 ar  
    18     6    15 ar  
    19     6    53 1   
    20     7     8 ar  
    21     8     9 1   
    22     8    13 ar  
    23     9    10 1   
    24    10    11 1   
    25    10    36 1   
    26    10    37 1   
    27    11    38 1   
    28    11    39 1   
    29    11    52 1   
    30    12    52 1   
    31    13    14 ar  
    32    14    15 ar  
    33    14    23 1   
    34    15    16 1   
    35    16    17 2   
    36    16    22 1   
    37    17    18 1   
    38    17    23 1   
    39    18    19 1   
    40    18    42 1   
    41    18    43 1   
    42    19    20 1   
    43    19    44 1   
    44    19    45 1   
    45    20    21 1   
    46    20    46 1   
    47    20    47 1   
    48    21    22 1   
    49    21    48 1   
    50    21    49 1   
    51    22    50 1   
    52    22    51 1   
    53    34    53 1   
    54    35    53 1   
    55    40    52 1   
    56    41    52 1   
@<TRIPOS>SUBSTRUCTURE
     1 RMG         1 TEMP              0 ****  ****    0 ROOT
