@<TRIPOS>MOLECULE
RMG
   53    56     1     0     0
SMALL
No Charge or Current Charge


@<TRIPOS>ATOM
      1 C10         19.9330   -11.3270    41.9110 c6         1 RMG       0.165800
      2 C11         21.0730   -12.2410    42.4250 c6         1 RMG      -0.077400
      3 C12         20.9470   -12.4880    43.9450 c6         1 RMG      -0.074400
      4 C13         20.8580   -11.1400    44.6940 c6         1 RMG      -0.077400
      5 C14         19.7220   -10.2590    44.1180 c6         1 RMG       0.165800
      6 C02         21.5620   -11.3140    37.7920 ca         1 RMG       0.435900
      7 N03         21.5660   -10.1110    38.3810 nb         1 RMG      -0.303000
      8 C04         20.7510    -9.1690    37.8600 ca         1 RMG       0.289300
      9 S05         20.7360    -7.5700    38.6570 ss         1 RMG      -0.329300
     10 C06         20.4930    -7.9960    40.4410 c3         1 RMG       0.048600
     11 C07         19.1000    -8.6210    40.6720 c3         1 RMG      -0.067400
     12 N09         19.8850   -10.0320    42.6550 n3         1 RMG      -0.720600
     13 N15         19.9330    -9.3300    36.8020 nb         1 RMG      -0.174000
     14 C16         19.9500   -10.5460    36.2310 ca         1 RMG       0.168300
     15 C17         20.7450   -11.5910    36.6730 ca         1 RMG      -0.232800
     16 C18         20.5820   -12.8100    35.8670 cc         1 RMG      -0.037400
     17 C19         19.6410   -12.5870    34.8680 cd         1 RMG      -0.080600
     18 C20         19.2020   -13.5730    33.8150 c3         1 RMG      -0.005200
     19 C21         20.3600   -14.0350    32.9040 c3         1 RMG      -0.068400
     20 C22         21.3380   -15.0390    33.5590 c3         1 RMG      -0.071400
     21 C23         22.1510   -14.4960    34.7590 c3         1 RMG      -0.069400
     22 C24         21.3110   -14.1310    36.0040 c3         1 RMG      -0.008200
     23 S25         18.9390   -10.9480    34.8450 ss         1 RMG      -0.103900
     24 H1          18.9750   -11.8580    42.0110 h1         1 RMG       0.031200
     25 H2          20.0990   -11.1580    40.8380 h1         1 RMG       0.031200
     26 H3          21.0550   -13.1970    41.8850 hc         1 RMG       0.043950
     27 H4          22.0430   -11.7730    42.2040 hc         1 RMG       0.043950
     28 H5          21.8070   -13.0680    44.3080 hc         1 RMG       0.038700
     29 H6          20.0500   -13.0880    44.1500 hc         1 RMG       0.038700
     30 H7          21.8140   -10.6040    44.6110 hc         1 RMG       0.043950
     31 H8          20.6870   -11.3150    45.7640 hc         1 RMG       0.043950
     32 H9          19.7200    -9.2980    44.6540 h1         1 RMG       0.031200
     33 H10         18.7550   -10.7430    44.3210 h1         1 RMG       0.031200
     34 H11         22.7870   -11.9360    39.2890 hn         1 RMG       0.494000
     35 H12         22.2320   -13.1890    38.2430 hn         1 RMG       0.494000
     36 H13         21.2780    -8.6970    40.7530 h1         1 RMG       0.087700
     37 H14         20.5910    -7.0850    41.0460 h1         1 RMG       0.087700
     38 H15         18.3320    -7.8820    40.4140 hc         1 RMG       0.049700
     39 H16         18.9510    -9.4680    39.9940 hc         1 RMG       0.049700
     40 H17         18.8650    -8.1800    42.7590 h1         1 RMG       0.029700
     41 H18         17.8710    -9.5260    42.2020 h1         1 RMG       0.029700
     42 H20         18.4290   -13.1170    33.1850 hc         1 RMG       0.049200
     43 H21         18.7330   -14.4460    34.2850 hc         1 RMG       0.049200
     44 H22         20.9140   -13.1590    32.5430 hc         1 RMG       0.044200
     45 H23         19.9270   -14.5130    32.0170 hc         1 RMG       0.044200
     46 H24         20.7820   -15.9310    33.8730 hc         1 RMG       0.037200
     47 H25         22.0450   -15.3750    32.7910 hc         1 RMG       0.037200
     48 H26         22.8740   -15.2680    35.0490 hc         1 RMG       0.043700
     49 H27         22.7400   -13.6250    34.4450 hc         1 RMG       0.043700
     50 H28         20.5860   -14.9310    36.1950 hc         1 RMG       0.038700
     51 H29         21.9810   -14.1430    36.8620 hc         1 RMG       0.038700
     52 C08         18.8720    -9.0800    42.1300 c3         1 RMG       0.170800
     53 N01         22.3920   -12.2000    38.3920 nv         1 RMG      -1.070900
@<TRIPOS>BOND
     1     1     2 1   
     2     1    12 1   
     3     1    24 1   
     4     1    25 1   
     5     2     3 1   
     6     2    26 1   
     7     2    27 1   
     8     3     4 1   
     9     3    28 1   
    10     3    29 1   
    11     4     5 1   
    12     4    30 1   
    13     4    31 1   
    14     5    12 1   
    15     5    32 1   
    16     5    33 1   
    17     6     7 ar  
    18     6    15 ar  
    19     6    53 1   
    20     7     8 ar  
    21     8     9 1   
    22     8    13 ar  
    23     9    10 1   
    24    10    11 1   
    25    10    36 1   
    26    10    37 1   
    27    11    38 1   
    28    11    39 1   
    29    11    52 1   
    30    12    52 1   
    31    13    14 ar  
    32    14    15 ar  
    33    14    23 1   
    34    15    16 1   
    35    16    17 2   
    36    16    22 1   
    37    17    18 1   
    38    17    23 1   
    39    18    19 1   
    40    18    42 1   
    41    18    43 1   
    42    19    20 1   
    43    19    44 1   
    44    19    45 1   
    45    20    21 1   
    46    20    46 1   
    47    20    47 1   
    48    21    22 1   
    49    21    48 1   
    50    21    49 1   
    51    22    50 1   
    52    22    51 1   
    53    34    53 1   
    54    35    53 1   
    55    40    52 1   
    56    41    52 1   
@<TRIPOS>SUBSTRUCTURE
     1 RMG         1 TEMP              0 ****  ****    0 ROOT
