@<TRIPOS>MOLECULE
RMI
   49    51     1     0     0
SMALL
abcg2


@<TRIPOS>ATOM
      1 N1         -20.1130     4.8890    26.8050 ns         1 RMI      -0.169000
      2 C4         -17.3500     9.1330    25.8240 ca         1 RMI       0.151100
      3 C5         -18.7120     8.9250    26.1680 ca         1 RMI      -0.116000
      4 C6         -19.2070     7.6680    26.3640 ca         1 RMI      -0.051000
      5 C7         -18.3660     6.5370    26.2270 ca         1 RMI      -0.034000
      6 C8         -18.7840     5.1970    26.4170 ca         1 RMI      -0.061000
      7 C13        -23.3040     5.1110    31.7860 ca         1 RMI      -0.099000
      8 C15        -22.3110     2.9580    31.5080 ca         1 RMI       0.126000
      9 C17        -17.8930     4.1730    26.1970 ca         1 RMI       0.290900
     10 C20        -16.5110     8.0550    25.6580 ca         1 RMI      -0.195000
     11 CL         -21.8420     1.4040    32.1720 cl         1 RMI      -0.213000
     12 C14        -22.9380     3.8850    32.3300 ca         1 RMI      -0.095000
     13 C12        -23.0440     5.3970    30.4500 ca         1 RMI      -0.086000
     14 C16        -22.0460     3.2270    30.1740 ca         1 RMI      -0.093000
     15 C11        -22.4130     4.4600    29.6340 ca         1 RMI      -0.065300
     16 C9         -20.6560     5.2350    28.0030 c          1 RMI       0.594100
     17 O1         -20.0580     5.9000    28.8380 o          1 RMI      -0.563100
     18 N2         -16.6100     4.3680    25.8120 nb         1 RMI      -0.644000
     19 C18        -16.1920     5.6060    25.6600 ca         1 RMI       0.342900
     20 C19        -17.0110     6.7450    25.8510 ca         1 RMI      -0.047000
     21 C3         -15.6180    10.7330    25.3980 c3         1 RMI       0.121600
     22 C2         -15.4290    12.2440    25.4490 c3         1 RMI       0.175800
     23 N          -15.3740    12.8800    26.7600 n3         1 RMI      -0.734600
     24 C1         -14.2360    12.4660    27.5640 c3         1 RMI       0.159100
     25 C          -16.6190    12.8350    27.5150 c3         1 RMI       0.159100
     26 H1         -20.6070     4.2070    26.2480 hn         1 RMI       0.154000
     27 H2         -19.3490     9.7940    26.2730 ha         1 RMI       0.130000
     28 H3         -20.2470     7.5350    26.6250 ha         1 RMI       0.125000
     29 H4         -22.7330     5.5780    27.8350 hc         1 RMI       0.065700
     30 H5         -22.2900     3.8990    27.5660 hc         1 RMI       0.065700
     31 H6         -23.7960     5.8440    32.4110 ha         1 RMI       0.120000
     32 H7         -18.2120     3.1460    26.3330 h4         1 RMI       0.019100
     33 H8         -15.4760     8.1770    25.3760 ha         1 RMI       0.122000
     34 H9         -23.1370     3.6520    33.3670 ha         1 RMI       0.131000
     35 H10        -23.3330     6.3550    30.0360 ha         1 RMI       0.118000
     36 H11        -21.5570     2.4850    29.5570 ha         1 RMI       0.126000
     37 H12        -15.1560     5.7490    25.3670 h4         1 RMI       0.020100
     38 H13        -15.3650    10.3600    24.4010 h1         1 RMI       0.041700
     39 H14        -14.9790    10.2280    26.1260 h1         1 RMI       0.041700
     40 H15        -14.4880    12.4620    24.9360 h1         1 RMI       0.063700
     41 H16        -16.2300    12.7120    24.8710 h1         1 RMI       0.063700
     42 H18        -14.1580    13.1140    28.4400 h1         1 RMI       0.032533
     43 H19        -14.3050    11.4280    27.9260 h1         1 RMI       0.032533
     44 H20        -13.3180    12.5620    26.9820 h1         1 RMI       0.032533
     45 H21        -16.5440    13.5140    28.3670 h1         1 RMI       0.032533
     46 H22        -17.4460    13.1610    26.8830 h1         1 RMI       0.032533
     47 H23        -16.8600    11.8330    27.9010 h1         1 RMI       0.032533
     48 O          -16.9920    10.4290    25.6790 os         1 RMI      -0.351100
     49 C10        -22.0950     4.7670    28.1970 c3         1 RMI      -0.108100
@<TRIPOS>BOND
     1     1     6 1   
     2     1    16 1   
     3     1    26 1   
     4     2     3 ar  
     5     2    10 ar  
     6     2    48 1   
     7     3     4 ar  
     8     3    27 1   
     9     4     5 ar  
    10     4    28 1   
    11     5     6 ar  
    12     5    20 ar  
    13     6     9 ar  
    14     7    12 ar  
    15     7    13 ar  
    16     7    31 1   
    17     8    11 1   
    18     8    12 ar  
    19     8    14 ar  
    20     9    18 ar  
    21     9    32 1   
    22    10    20 ar  
    23    10    33 1   
    24    12    34 1   
    25    13    15 ar  
    26    13    35 1   
    27    14    15 ar  
    28    14    36 1   
    29    15    49 1   
    30    16    17 2   
    31    16    49 1   
    32    18    19 ar  
    33    19    20 ar  
    34    19    37 1   
    35    21    22 1   
    36    21    38 1   
    37    21    39 1   
    38    21    48 1   
    39    22    23 1   
    40    22    40 1   
    41    22    41 1   
    42    23    24 1   
    43    23    25 1   
    44    24    42 1   
    45    24    43 1   
    46    24    44 1   
    47    25    45 1   
    48    25    46 1   
    49    25    47 1   
    50    29    49 1   
    51    30    49 1   
@<TRIPOS>SUBSTRUCTURE
     1 RMI         1 TEMP              0 ****  ****    0 ROOT
