@<TRIPOS>MOLECULE
RMI
   49    51     1     0     0
SMALL
No Charge or Current Charge


@<TRIPOS>ATOM
      1 N1         -20.2690     5.2380    27.4640 ns         1 RMI      -0.169000
      2 C4         -17.2230     9.1800    25.9660 ca         1 RMI       0.151100
      3 C5         -18.5990     9.0940    26.2270 ca         1 RMI      -0.116000
      4 C6         -19.1810     7.8720    26.6070 ca         1 RMI      -0.051000
      5 C7         -18.3830     6.7140    26.7400 ca         1 RMI      -0.034000
      6 C8         -18.9060     5.4520    27.1210 ca         1 RMI      -0.061000
      7 C13        -23.1530     3.9390    32.0040 ca         1 RMI      -0.099000
      8 C15        -22.6460     2.0950    30.5040 ca         1 RMI       0.126000
      9 C17        -18.0330     4.3440    27.1520 ca         1 RMI       0.290900
     10 C20        -16.4210     8.0250    26.0750 ca         1 RMI      -0.195000
     11 Cl         -22.4210     0.3720    30.2290 cl         1 RMI      -0.213000
     12 C14        -22.9760     2.5620    31.7860 ca         1 RMI      -0.095000
     13 C12        -23.0000     4.8460    30.9400 ca         1 RMI      -0.086000
     14 C16        -22.4930     2.9990    29.4390 ca         1 RMI      -0.093000
     15 C11        -22.6700     4.3810    29.6510 ca         1 RMI      -0.065300
     16 C9         -21.0490     5.8620    28.4240 c          1 RMI       0.594100
     17 O1         -20.6150     6.7240    29.1810 o          1 RMI      -0.563100
     18 N2         -16.7120     4.4190    26.8750 nb         1 RMI      -0.644000
     19 C18        -16.2120     5.6310    26.5400 ca         1 RMI       0.342900
     20 C19        -17.0020     6.7970    26.4530 ca         1 RMI      -0.047000
     21 C3         -15.3110    10.6090    25.3230 c3         1 RMI       0.121600
     22 C2         -15.0650    12.1000    24.9530 c3         1 RMI       0.175800
     23 N          -15.1130    13.1020    26.0660 n3         1 RMI      -0.734600
     24 C1         -14.0400    12.9330    27.0720 c3         1 RMI       0.159100
     25 C          -16.4530    13.2720    26.6750 c3         1 RMI       0.159100
     26 H1         -20.7280     4.4970    26.9490 hn         1 RMI       0.154000
     27 H2         -19.2190     9.9810    26.1310 ha         1 RMI       0.130000
     28 H3         -20.2520     7.8420    26.7830 ha         1 RMI       0.125000
     29 H4         -23.1570     6.2290    28.6520 hc         1 RMI       0.065700
     30 H5         -22.7670     4.8680    27.5600 hc         1 RMI       0.065700
     31 H6         -23.4070     4.3040    32.9970 ha         1 RMI       0.120000
     32 H7         -18.4050     3.3570    27.4280 h4         1 RMI       0.019100
     33 H8         -15.3560     8.0610    25.8650 ha         1 RMI       0.122000
     34 H9         -23.0930     1.8590    32.6070 ha         1 RMI       0.131000
     35 H10        -23.1360     5.9100    31.1190 ha         1 RMI       0.118000
     36 H11        -22.2370     2.6220    28.4520 ha         1 RMI       0.126000
     37 H12        -15.1450     5.6640    26.3220 h4         1 RMI       0.020100
     38 H13        -15.0050     9.9860    24.4730 h1         1 RMI       0.041700
     39 H14        -14.6950    10.3320    26.1870 h1         1 RMI       0.041700
     40 H15        -14.0780    12.1530    24.4740 h1         1 RMI       0.063700
     41 H16        -15.7900    12.3770    24.1740 h1         1 RMI       0.063700
     42 H18        -14.0280    13.7810    27.7710 h1         1 RMI       0.032533
     43 H19        -14.1850    12.0140    27.6560 h1         1 RMI       0.032533
     44 H20        -13.0550    12.8820    26.5880 h1         1 RMI       0.032533
     45 H21        -16.4640    14.1450    27.3420 h1         1 RMI       0.032533
     46 H22        -17.2170    13.4280    25.9020 h1         1 RMI       0.032533
     47 H23        -16.7340    12.3920    27.2680 h1         1 RMI       0.032533
     48 O          -16.7130    10.4080    25.5980 os         1 RMI      -0.351100
     49 C10        -22.4980     5.3660    28.4990 c3         1 RMI      -0.108100
@<TRIPOS>BOND
     1     1     6 1   
     2     1    16 1   
     3     1    26 1   
     4     2     3 ar  
     5     2    10 ar  
     6     2    48 1   
     7     3     4 ar  
     8     3    27 1   
     9     4     5 ar  
    10     4    28 1   
    11     5     6 ar  
    12     5    20 ar  
    13     6     9 ar  
    14     7    12 ar  
    15     7    13 ar  
    16     7    31 1   
    17     8    11 1   
    18     8    12 ar  
    19     8    14 ar  
    20     9    18 ar  
    21     9    32 1   
    22    10    20 ar  
    23    10    33 1   
    24    12    34 1   
    25    13    15 ar  
    26    13    35 1   
    27    14    15 ar  
    28    14    36 1   
    29    15    49 1   
    30    16    17 2   
    31    16    49 1   
    32    18    19 ar  
    33    19    20 ar  
    34    19    37 1   
    35    21    22 1   
    36    21    38 1   
    37    21    39 1   
    38    21    48 1   
    39    22    23 1   
    40    22    40 1   
    41    22    41 1   
    42    23    24 1   
    43    23    25 1   
    44    24    42 1   
    45    24    43 1   
    46    24    44 1   
    47    25    45 1   
    48    25    46 1   
    49    25    47 1   
    50    29    49 1   
    51    30    49 1   
@<TRIPOS>SUBSTRUCTURE
     1 RMI         1 TEMP              0 ****  ****    0 ROOT
