@<TRIPOS>MOLECULE
RMJ
   51    54     1     0     0
SMALL
No Charge or Current Charge


@<TRIPOS>ATOM
      1 C10         19.7070   -11.0090    41.4320 c3         1 RMJ       0.149800
      2 C12         17.5470   -11.6470    42.5680 c6         1 RMJ       0.177800
      3 C13         16.6630   -11.7080    41.2880 c6         1 RMJ      -0.111400
      4 C02         20.1830   -11.4690    37.0170 ca         1 RMJ       0.447900
      5 N03         19.4700   -10.4930    37.5940 nb         1 RMJ      -0.307000
      6 C04         19.3230    -9.3440    36.8890 ca         1 RMJ       0.286300
      7 S05         18.3800    -8.0210    37.6420 ss         1 RMJ      -0.243300
      8 C06         18.6770    -8.2450    39.4650 c3         1 RMJ      -0.068400
      9 C07         20.1680    -8.1710    39.8670 c          1 RMJ       0.617100
     10 N08         20.5270    -8.6510    41.1090 ns         1 RMJ      -0.511900
     11 C09         19.7320    -9.5490    41.9590 c3         1 RMJ       0.105000
     12 N11         18.9730   -11.9830    42.2910 n3         1 RMJ      -0.743600
     13 C14         17.1440   -12.7690    40.2580 c6         1 RMJ      -0.071400
     14 C15         17.9300   -13.9100    40.9480 c6         1 RMJ      -0.111400
     15 C16         19.1080   -13.4040    41.8390 c6         1 RMJ       0.177800
     16 O17         21.0180    -7.6480    39.1640 o          1 RMJ      -0.580100
     17 N18         19.8170    -9.1000    35.6540 nb         1 RMJ      -0.175000
     18 C19         20.5260   -10.0990    35.1000 ca         1 RMJ       0.184300
     19 S20         21.2650   -10.0070    33.4810 ss         1 RMJ      -0.079900
     20 C21         20.7410   -11.3060    35.7440 ca         1 RMJ      -0.232800
     21 C22         21.5340   -12.2230    34.9500 cc         1 RMJ      -0.062400
     22 C23         21.8640   -11.6620    33.7520 cd         1 RMJ      -0.107600
     23 C24         22.6300   -12.6600    32.9230 c5         1 RMJ      -0.002200
     24 C25         23.0640   -13.7730    33.9480 c5         1 RMJ      -0.075400
     25 C26         22.0380   -13.6190    35.1200 c5         1 RMJ      -0.018200
     26 H1          20.7520   -11.3350    41.3400 h1         1 RMJ       0.038700
     27 H2          19.2970   -11.0070    40.4170 h1         1 RMJ       0.038700
     28 H3          17.4450   -10.6600    43.0420 h1         1 RMJ       0.047700
     29 H4          17.1460   -12.3710    43.2950 h1         1 RMJ       0.047700
     30 H5          16.6400   -10.7220    40.8060 hc         1 RMJ       0.046950
     31 H6          15.6280   -11.9220    41.5870 hc         1 RMJ       0.046950
     32 H7          19.6840   -12.7360    38.5280 hn         1 RMJ       0.499000
     33 H8          20.6190   -13.4450    37.2610 hn         1 RMJ       0.499000
     34 H9          18.1420    -7.4680    40.0230 h1         1 RMJ       0.092200
     35 H10         18.2680    -9.2160    39.7590 h1         1 RMJ       0.092200
     36 H11         21.5010    -8.5140    41.3540 hn         1 RMJ       0.313500
     37 H12         18.7110    -9.1550    42.0370 h1         1 RMJ       0.055700
     38 H13         20.1670    -9.5450    42.9660 h1         1 RMJ       0.055700
     39 H15         17.7760   -12.2930    39.4980 hc         1 RMJ       0.035200
     40 H16         16.2820   -13.1790    39.7140 hc         1 RMJ       0.035200
     41 H17         17.2340   -14.4810    41.5780 hc         1 RMJ       0.046950
     42 H18         18.3080   -14.6200    40.1990 hc         1 RMJ       0.046950
     43 H19         19.1740   -14.0650    42.7160 h1         1 RMJ       0.047700
     44 H20         20.0530   -13.5390    41.2920 h1         1 RMJ       0.047700
     45 H21         23.4970   -12.2130    32.4230 hc         1 RMJ       0.056200
     46 H22         21.9950   -13.0820    32.1350 hc         1 RMJ       0.056200
     47 H23         23.0610   -14.7780    33.5100 hc         1 RMJ       0.046700
     48 H24         24.0810   -13.5800    34.3070 hc         1 RMJ       0.046700
     49 H25         21.2170   -14.3390    35.0290 hc         1 RMJ       0.047200
     50 H26         22.5120   -13.7750    36.0960 hc         1 RMJ       0.047200
     51 N01         20.3090   -12.6070    37.7400 nv         1 RMJ      -1.077900
@<TRIPOS>BOND
     1     1    11 1   
     2     1    12 1   
     3     1    26 1   
     4     1    27 1   
     5     2     3 1   
     6     2    12 1   
     7     2    28 1   
     8     2    29 1   
     9     3    13 1   
    10     3    30 1   
    11     3    31 1   
    12     4     5 ar  
    13     4    20 ar  
    14     4    51 1   
    15     5     6 ar  
    16     6     7 1   
    17     6    17 ar  
    18     7     8 1   
    19     8     9 1   
    20     8    34 1   
    21     8    35 1   
    22     9    10 1   
    23     9    16 2   
    24    10    11 1   
    25    10    36 1   
    26    11    37 1   
    27    11    38 1   
    28    12    15 1   
    29    13    14 1   
    30    13    39 1   
    31    13    40 1   
    32    14    15 1   
    33    14    41 1   
    34    14    42 1   
    35    15    43 1   
    36    15    44 1   
    37    17    18 ar  
    38    18    19 1   
    39    18    20 ar  
    40    19    22 1   
    41    20    21 1   
    42    21    22 2   
    43    21    25 1   
    44    22    23 1   
    45    23    24 1   
    46    23    45 1   
    47    23    46 1   
    48    24    25 1   
    49    24    47 1   
    50    24    48 1   
    51    25    49 1   
    52    25    50 1   
    53    32    51 1   
    54    33    51 1   
@<TRIPOS>SUBSTRUCTURE
     1 RMJ         1 TEMP              0 ****  ****    0 ROOT
