@<TRIPOS>MOLECULE
RMJ
   51    54     1     0     0
SMALL
bcc


@<TRIPOS>ATOM
      1 C10         19.5340   -11.0230    41.7240 c3         1 RMJ       0.149800
      2 C12         17.2040   -11.5600    41.3940 c6         1 RMJ       0.177800
      3 C13         17.3420   -12.2970    40.0490 c6         1 RMJ      -0.111400
      4 C02         20.6410   -11.1530    37.2510 ca         1 RMJ       0.776200
      5 N03         20.0780   -10.1090    37.8620 nb         1 RMJ      -0.833000
      6 C04         19.6500    -9.1020    37.1190 ca         1 RMJ       0.812300
      7 S05         18.8980    -7.7250    37.9120 ss         1 RMJ      -0.195400
      8 C06         18.9620    -8.2270    39.6320 c3         1 RMJ      -0.116300
      9 C07         20.3630    -8.1750    40.2260 c          1 RMJ       0.684100
     10 N08         20.5020    -8.7580    41.4290 ns         1 RMJ      -0.578900
     11 C09         19.5130    -9.5480    42.1330 c3         1 RMJ       0.105000
     12 N11         18.3710   -11.7090    42.2470 n3         1 RMJ      -0.743600
     13 C14         18.1900   -13.5660    40.2110 c6         1 RMJ      -0.071400
     14 C15         18.0440   -14.1210    41.6200 c6         1 RMJ      -0.111400
     15 C16         18.5510   -13.1010    42.6530 c6         1 RMJ       0.177800
     16 O17         21.2800    -7.5970    39.6680 o          1 RMJ      -0.580100
     17 N18         19.7000    -8.9840    35.8050 nb         1 RMJ      -0.701000
     18 C19         20.2520   -10.0310    35.2000 ca         1 RMJ       0.512600
     19 S20         20.4340   -10.1350    33.4730 ss         1 RMJ      -0.079900
     20 C21         20.7560   -11.1650    35.8410 ca         1 RMJ      -0.363400
     21 C22         21.2960   -12.1040    34.9100 cc         1 RMJ      -0.062400
     22 C23         21.1890   -11.6840    33.6320 cd         1 RMJ      -0.107600
     23 C24         21.6750   -12.6740    32.6270 c5         1 RMJ      -0.002200
     24 C25         22.4380   -13.6670    33.5350 c5         1 RMJ      -0.075400
     25 C26         21.8990   -13.4750    34.9730 c5         1 RMJ      -0.018200
     26 H1          20.4420   -11.4820    42.1180 h1         1 RMJ       0.038700
     27 H2          19.6180   -11.0820    40.6270 h1         1 RMJ       0.038700
     28 H3          17.0010   -10.4990    41.2260 h1         1 RMJ       0.047700
     29 H4          16.3370   -11.9410    41.9400 h1         1 RMJ       0.047700
     30 H5          17.7850   -11.6450    39.2910 hc         1 RMJ       0.046950
     31 H6          16.3440   -12.5510    39.6850 hc         1 RMJ       0.046950
     32 H7          20.9670   -12.1130    39.0110 hn         1 RMJ       0.443800
     33 H8          21.4770   -12.9940    37.6240 hn         1 RMJ       0.443800
     34 H9          18.3170    -7.5230    40.1660 h1         1 RMJ       0.092200
     35 H10         18.5110    -9.2130    39.7320 h1         1 RMJ       0.092200
     36 H11         21.4330    -8.7390    41.8180 hn         1 RMJ       0.313500
     37 H12         18.5210    -9.1220    41.9770 h1         1 RMJ       0.055700
     38 H13         19.7110    -9.4610    43.2010 h1         1 RMJ       0.055700
     39 H15         19.2450   -13.3440    40.0230 hc         1 RMJ       0.035200
     40 H16         17.9060   -14.3120    39.4670 hc         1 RMJ       0.035200
     41 H17         16.9920   -14.3580    41.8060 hc         1 RMJ       0.046950
     42 H18         18.5920   -15.0590    41.7340 hc         1 RMJ       0.046950
     43 H19         18.0410   -13.2720    43.6080 h1         1 RMJ       0.047700
     44 H20         19.6130   -13.2700    42.8400 h1         1 RMJ       0.047700
     45 H21         22.3160   -12.2390    31.8600 hc         1 RMJ       0.056200
     46 H22         20.8360   -13.1500    32.1120 hc         1 RMJ       0.056200
     47 H23         22.3380   -14.6960    33.1930 hc         1 RMJ       0.046700
     48 H24         23.5000   -13.4210    33.5180 hc         1 RMJ       0.046700
     49 H25         21.1390   -14.2210    35.2250 hc         1 RMJ       0.047200
     50 H26         22.6970   -13.5680    35.7140 hc         1 RMJ       0.047200
     51 N01         21.0880   -12.1530    38.0130 nv         1 RMJ      -0.967500
@<TRIPOS>BOND
     1     1    11 1   
     2     1    12 1   
     3     1    26 1   
     4     1    27 1   
     5     2     3 1   
     6     2    12 1   
     7     2    28 1   
     8     2    29 1   
     9     3    13 1   
    10     3    30 1   
    11     3    31 1   
    12     4     5 ar  
    13     4    20 ar  
    14     4    51 1   
    15     5     6 ar  
    16     6     7 1   
    17     6    17 ar  
    18     7     8 1   
    19     8     9 1   
    20     8    34 1   
    21     8    35 1   
    22     9    10 1   
    23     9    16 2   
    24    10    11 1   
    25    10    36 1   
    26    11    37 1   
    27    11    38 1   
    28    12    15 1   
    29    13    14 1   
    30    13    39 1   
    31    13    40 1   
    32    14    15 1   
    33    14    41 1   
    34    14    42 1   
    35    15    43 1   
    36    15    44 1   
    37    17    18 ar  
    38    18    19 1   
    39    18    20 ar  
    40    19    22 1   
    41    20    21 1   
    42    21    22 2   
    43    21    25 1   
    44    22    23 1   
    45    23    24 1   
    46    23    45 1   
    47    23    46 1   
    48    24    25 1   
    49    24    47 1   
    50    24    48 1   
    51    25    49 1   
    52    25    50 1   
    53    32    51 1   
    54    33    51 1   
@<TRIPOS>SUBSTRUCTURE
     1 RMJ         1 TEMP              0 ****  ****    0 ROOT
