@<TRIPOS>MOLECULE
RMM
   28    29     1     0     0
SMALL
No Charge or Current Charge


@<TRIPOS>ATOM
      1 N01         -3.7360    -2.1180     1.0400 n1         1 RMM      -0.466000
      2 C02         -3.3980    -1.0890     0.6050 cg         1 RMM       0.290700
      3 C03         -3.0390     0.1940     0.0820 ce         1 RMM      -0.117900
      4 C04         -4.1220     1.2370     0.0220 c          1 RMM       0.627300
      5 N05         -5.3650     0.9000     0.4390 nt         1 RMM      -0.599000
      6 O06         -3.9310     2.3710    -0.3860 o          1 RMM      -0.606100
      7 C07         -1.7580     0.4900    -0.3120 cf         1 RMM      -0.016200
      8 C08         -0.5290    -0.3380    -0.3690 ca         1 RMM      -0.091800
      9 C09         -0.5580    -1.7180    -0.6620 ca         1 RMM      -0.076000
     10 C10          0.6350    -2.4540    -0.7180 ca         1 RMM      -0.113000
     11 C11          1.8690    -1.8240    -0.4920 ca         1 RMM      -0.088000
     12 C12          1.9270    -0.4410    -0.2160 ca         1 RMM       0.014000
     13 C13          3.2050     0.2480     0.0160 cc         1 RMM      -0.164000
     14 C14          4.4160    -0.3830    -0.0160 cd         1 RMM      -0.153000
     15 N15          5.3480     0.6300     0.2530 na         1 RMM       0.000800
     16 N16          4.7460     1.8750     0.4520 nd         1 RMM      -0.517800
     17 C17          3.4660     1.6000     0.3010 cc         1 RMM       0.255900
     18 C18          0.7190     0.2870    -0.1640 ca         1 RMM      -0.076000
     19 H051        -5.5550    -0.0310     0.7810 hn         1 RMM       0.322000
     20 H052        -6.0990     1.5910     0.4020 hn         1 RMM       0.322000
     21 H072        -1.5800     1.5140    -0.6510 ha         1 RMM       0.209000
     22 H091        -1.4940    -2.2270    -0.8750 ha         1 RMM       0.125000
     23 H101         0.6040    -3.5170    -0.9450 ha         1 RMM       0.119000
     24 H111         2.7740    -2.4220    -0.5430 ha         1 RMM       0.111000
     25 H141         4.7000    -1.4130    -0.1960 h4         1 RMM       0.156000
     26 H151         6.3600     0.5140     0.3070 hn         1 RMM       0.374000
     27 H171         2.7490     2.4040     0.4050 h4         1 RMM       0.041100
     28 H181         0.7430     1.3520     0.0490 ha         1 RMM       0.119000
@<TRIPOS>BOND
     1     1     2 3   
     2     2     3 1   
     3     3     4 1   
     4     3     7 2   
     5     4     5 1   
     6     4     6 2   
     7     5    19 1   
     8     5    20 1   
     9     7     8 1   
    10     7    21 1   
    11     8     9 ar  
    12     8    18 ar  
    13     9    10 ar  
    14     9    22 1   
    15    10    11 ar  
    16    10    23 1   
    17    11    12 ar  
    18    11    24 1   
    19    12    13 1   
    20    12    18 ar  
    21    13    14 2   
    22    13    17 1   
    23    14    15 1   
    24    14    25 1   
    25    15    16 1   
    26    15    26 1   
    27    16    17 2   
    28    17    27 1   
    29    18    28 1   
@<TRIPOS>SUBSTRUCTURE
     1 RMM         1 TEMP              0 ****  ****    0 ROOT
