@<TRIPOS>MOLECULE
RMM
   28    29     1     0     0
SMALL
abcg2


@<TRIPOS>ATOM
      1 N01         -3.9050    -2.1800     0.5960 n1         1 RMM      -0.466000
      2 C02         -3.4720    -1.1420     0.3390 cg         1 RMM       0.290700
      3 C03         -3.0080     0.1670     0.0350 ce         1 RMM      -0.117900
      4 C04         -4.0090     1.2910     0.0340 c          1 RMM       0.627300
      5 N05         -5.2730     0.9520     0.3080 nt         1 RMM      -0.599000
      6 O06         -3.6550     2.4340    -0.2050 o          1 RMM      -0.606100
      7 C07         -1.7150     0.4570    -0.2080 cf         1 RMM      -0.016200
      8 C08         -0.5430    -0.3980    -0.2680 ca         1 RMM      -0.091800
      9 C09         -0.5750    -1.7840    -0.4540 ca         1 RMM      -0.076000
     10 C10          0.6120    -2.4950    -0.4850 ca         1 RMM      -0.113000
     11 C11          1.8310    -1.8530    -0.3260 ca         1 RMM      -0.088000
     12 C12          1.8940    -0.4680    -0.1580 ca         1 RMM       0.014000
     13 C13          3.1710     0.2230    -0.0050 cc         1 RMM      -0.164000
     14 C14          4.4380    -0.2600    -0.2730 cd         1 RMM      -0.153000
     15 N15          5.2910     0.7280     0.0190 na         1 RMM       0.000800
     16 N16          4.6920     1.8270     0.4620 nd         1 RMM      -0.517800
     17 C17          3.4060     1.5380     0.4520 cc         1 RMM       0.255900
     18 C18          0.6950     0.2410    -0.1470 ca         1 RMM      -0.076000
     19 H051        -5.5740     0.0100     0.4930 hn         1 RMM       0.322000
     20 H052        -5.9850     1.6640     0.3130 hn         1 RMM       0.322000
     21 H072        -1.5160     1.5120    -0.3600 ha         1 RMM       0.209000
     22 H091        -1.5040    -2.3120    -0.6030 ha         1 RMM       0.125000
     23 H101         0.5890    -3.5670    -0.6330 ha         1 RMM       0.119000
     24 H111         2.7390    -2.4420    -0.3340 ha         1 RMM       0.111000
     25 H141         4.7820    -1.2090    -0.6510 h4         1 RMM       0.156000
     26 H151         6.2950     0.7050    -0.0680 hn         1 RMM       0.374000
     27 H171         2.6850     2.2720     0.7800 h4         1 RMM       0.041100
     28 H181         0.7130     1.3190    -0.0440 ha         1 RMM       0.119000
@<TRIPOS>BOND
     1     1     2 3   
     2     2     3 1   
     3     3     4 1   
     4     3     7 2   
     5     4     5 1   
     6     4     6 2   
     7     5    19 1   
     8     5    20 1   
     9     7     8 1   
    10     7    21 1   
    11     8     9 ar  
    12     8    18 ar  
    13     9    10 ar  
    14     9    22 1   
    15    10    11 ar  
    16    10    23 1   
    17    11    12 ar  
    18    11    24 1   
    19    12    13 1   
    20    12    18 ar  
    21    13    14 2   
    22    13    17 1   
    23    14    15 1   
    24    14    25 1   
    25    15    16 1   
    26    15    26 1   
    27    16    17 2   
    28    17    27 1   
    29    18    28 1   
@<TRIPOS>SUBSTRUCTURE
     1 RMM         1 TEMP              0 ****  ****    0 ROOT
