@<TRIPOS>MOLECULE
RMN
   18    18     1     0     0
SMALL
abcg2


@<TRIPOS>ATOM
      1 C1           0.2220     0.3760     0.4740 ca         1 RMN      -0.026300
      2 C2          -0.8780     0.8160     1.2080 ca         1 RMN      -0.098500
      3 C3          -1.0620     0.4150     2.5240 ca         1 RMN      -0.127500
      4 C4          -0.1460    -0.4380     3.1290 ca         1 RMN      -0.147000
      5 C5           0.9540    -0.8780     2.4050 ca         1 RMN      -0.127500
      6 C6           1.1380    -0.4730     1.0890 ca         1 RMN      -0.098500
      7 C7           0.3880     0.7920    -0.9660 c3         1 RMN       0.043600
      8 C10         -0.4280    -0.1660    -1.8830 c          1 RMN       0.699000
      9 O8           1.7270     0.7880    -1.3710 oh         1 RMN      -0.704000
     10 O11          0.2640    -0.7780    -2.7250 o          1 RMN      -0.709500
     11 O12         -1.6500    -0.2320    -1.7020 o          1 RMN      -0.709500
     12 H2          -1.5940     1.4860     0.7480 ha         1 RMN       0.116000
     13 H3          -1.9190     0.7730     3.0810 ha         1 RMN       0.087000
     14 H4          -0.2860    -0.7500     4.1560 ha         1 RMN       0.085000
     15 H5           1.6770    -1.5390     2.8680 ha         1 RMN       0.087000
     16 H6           2.0050    -0.8180     0.5420 ha         1 RMN       0.116000
     17 H7          -0.0410     1.7980    -1.0860 h1         1 RMN       0.038700
     18 HO8          1.7210     0.1270    -2.0910 ho         1 RMN       0.475000
@<TRIPOS>BOND
     1     1     2 ar  
     2     1     6 ar  
     3     1     7 1   
     4     2     3 ar  
     5     2    12 1   
     6     3     4 ar  
     7     3    13 1   
     8     4     5 ar  
     9     4    14 1   
    10     5     6 ar  
    11     5    15 1   
    12     6    16 1   
    13     7     8 1   
    14     7     9 1   
    15     7    17 1   
    16     8    10 1   
    17     8    11 1   
    18     9    18 1   
@<TRIPOS>SUBSTRUCTURE
     1 RMN         1 TEMP              0 ****  ****    0 ROOT
