@<TRIPOS>MOLECULE
RMN
   18    18     1     0     0
SMALL
No Charge or Current Charge


@<TRIPOS>ATOM
      1 C1           0.0960     0.3650     0.4580 ca         1 RMN      -0.026300
      2 C2          -0.7920     1.0260     1.3310 ca         1 RMN      -0.098500
      3 C3          -0.8850     0.6390     2.6790 ca         1 RMN      -0.127500
      4 C4          -0.0920    -0.4130     3.1660 ca         1 RMN      -0.147000
      5 C5           0.7970    -1.0760     2.3040 ca         1 RMN      -0.127500
      6 C6           0.8910    -0.6890     0.9550 ca         1 RMN      -0.098500
      7 C7           0.1900     0.7890    -1.0100 c3         1 RMN       0.043600
      8 C10         -0.1960    -0.3990    -1.9660 c          1 RMN       0.699000
      9 O8           1.5130     1.3180    -1.2950 oh         1 RMN      -0.704000
     10 O11          0.7120    -0.9600    -2.5700 o          1 RMN      -0.709500
     11 O12         -1.3760    -0.6950    -2.0940 o          1 RMN      -0.709500
     12 H2          -1.4110     1.8420     0.9650 ha         1 RMN       0.116000
     13 H3          -1.5730     1.1540     3.3460 ha         1 RMN       0.087000
     14 H4          -0.1640    -0.7130     4.2090 ha         1 RMN       0.085000
     15 H5           1.4130    -1.8900     2.6790 ha         1 RMN       0.087000
     16 H6           1.5830    -1.2080     0.2960 ha         1 RMN       0.116000
     17 H7          -0.5540     1.5770    -1.1890 h1         1 RMN       0.038700
     18 HO8          1.9410     0.6310    -1.8640 ho         1 RMN       0.475000
@<TRIPOS>BOND
     1     1     2 ar  
     2     1     6 ar  
     3     1     7 1   
     4     2     3 ar  
     5     2    12 1   
     6     3     4 ar  
     7     3    13 1   
     8     4     5 ar  
     9     4    14 1   
    10     5     6 ar  
    11     5    15 1   
    12     6    16 1   
    13     7     8 1   
    14     7     9 1   
    15     7    17 1   
    16     8    10 1   
    17     8    11 1   
    18     9    18 1   
@<TRIPOS>SUBSTRUCTURE
     1 RMN         1 TEMP              0 ****  ****    0 ROOT
