@<TRIPOS>MOLECULE
RMQ
  107   109     1     0     0
SMALL
No Charge or Current Charge


@<TRIPOS>ATOM
      1 C2         -21.9910   -20.1700     4.4520 ca         1 RMQ      -0.118000
      2 C3         -21.6110   -20.3210     5.7960 ca         1 RMQ      -0.096000
      3 C4         -22.4590   -20.9730     6.7090 ca         1 RMQ      -0.053300
      4 C5         -23.7160   -21.4280     6.2740 ca         1 RMQ      -0.096000
      5 C6         -22.0310   -21.1820     8.1550 c3         1 RMQ      -0.048100
      6 C7         -21.7130   -22.6630     8.4900 c3         1 RMQ       0.133700
      7 C8         -21.5390   -22.9260    10.0060 c3         1 RMQ      -0.235400
      8 C17        -20.8900   -29.0600     4.8660 c3         1 RMQ       0.132600
      9 C21        -20.7090   -23.2370     1.5460 c3         1 RMQ      -0.109100
     10 C22        -21.7990   -25.1840     0.3400 c3         1 RMQ      -0.109100
     11 O8         -21.8050   -19.9960     1.4310 o          1 RMQ      -0.583100
     12 C24        -22.9810   -20.3510     1.4710 c          1 RMQ       0.593100
     13 C25        -23.8060   -20.5890     0.1680 c3         1 RMQ       0.031700
     14 N4         -22.9460   -20.2740    -0.9950 ns         1 RMQ      -0.481900
     15 C33        -23.3580   -20.1100    -2.3040 c          1 RMQ       0.565100
     16 O7         -24.5440   -20.0730    -2.6080 o          1 RMQ      -0.554100
     17 C34        -22.1950   -19.9830    -3.3350 c3         1 RMQ       0.162300
     18 F          -22.6340   -20.3040    -4.5780 f          1 RMQ      -0.107000
     19 F1         -21.8070   -18.6870    -3.4120 f          1 RMQ      -0.107000
     20 C35        -21.0250   -20.9040    -2.9350 ca         1 RMQ      -0.165300
     21 C40        -19.8390   -20.3860    -2.3650 ca         1 RMQ      -0.062000
     22 C39        -18.8070   -21.2520    -1.9630 ca         1 RMQ      -0.112000
     23 C38        -18.9450   -22.6400    -2.1230 ca         1 RMQ      -0.081000
     24 C37        -20.1200   -23.1640    -2.6840 ca         1 RMQ      -0.112000
     25 C36        -21.1550   -22.3020    -3.0860 ca         1 RMQ      -0.062000
     26 C26        -24.3510   -22.0460     0.0450 c3         1 RMQ      -0.035100
     27 C27        -25.4150   -22.4430     1.0740 ca         1 RMQ      -0.095300
     28 C32        -25.0780   -23.3520     2.1010 ca         1 RMQ      -0.080000
     29 C31        -26.0340   -23.7480     3.0510 ca         1 RMQ      -0.081000
     30 C30        -27.3410   -23.2400     2.9870 ca         1 RMQ      -0.098000
     31 C29        -27.6900   -22.3400     1.9670 ca         1 RMQ      -0.114000
     32 C28        -26.7390   -21.9450     1.0110 ca         1 RMQ       0.114000
     33 Cl         -27.2470   -20.8320    -0.2570 cl         1 RMQ      -0.227000
     34 C1         -23.2400   -20.6560     4.0070 ca         1 RMQ      -0.070000
     35 C          -24.1050   -21.2620     4.9350 ca         1 RMQ      -0.118000
     36 C9         -20.3510   -22.1440    10.5820 c          1 RMQ       0.724000
     37 O1         -19.2350   -22.6250    10.4610 o          1 RMQ      -0.735000
     38 O          -20.5680   -21.0530    11.0840 o          1 RMQ      -0.735000
     39 N          -20.5360   -23.1490     7.7650 ns         1 RMQ      -0.451900
     40 C10        -20.5410   -24.1030     6.7660 c          1 RMQ       0.589100
     41 O6         -21.5780   -24.5290     6.2650 o          1 RMQ      -0.698100
     42 C11        -19.1280   -24.6260     6.3560 c3         1 RMQ       0.035700
     43 C12        -18.5710   -23.9350     5.0750 c3         1 RMQ      -0.068700
     44 C14        -18.4890   -22.3980     5.2170 c3         1 RMQ      -0.089600
     45 C13        -17.1980   -24.5090     4.6390 c3         1 RMQ      -0.089600
     46 N1         -19.1870   -26.0910     6.1660 ns         1 RMQ      -0.488900
     47 C15        -19.3250   -27.0090     7.1810 c          1 RMQ       0.562100
     48 O5         -19.3930   -26.6730     8.3560 o          1 RMQ      -0.578100
     49 C16        -19.3730   -28.4870     6.7280 c3         1 RMQ       0.062600
     50 O2         -19.5730   -28.6360     5.2940 os         1 RMQ      -0.459000
     51 C18        -21.9360   -27.9230     5.0490 c3         1 RMQ       0.089000
     52 N2         -21.6380   -26.6710     4.3350 ns         1 RMQ      -0.507900
     53 C19        -21.3720   -26.5560     3.0010 c          1 RMQ       0.645100
     54 O4         -21.3570   -27.4860     2.2110 o          1 RMQ      -0.575000
     55 O3         -21.1620   -25.2360     2.7200 os         1 RMQ      -0.473100
     56 C20        -20.7510   -24.7740     1.4110 c3         1 RMQ       0.222000
     57 C23        -19.3350   -25.3210     1.1000 c3         1 RMQ      -0.109100
     58 H1         -21.3010   -19.6750     3.7760 ha         1 RMQ       0.113500
     59 H2         -20.6440   -19.9450     6.1230 ha         1 RMQ       0.116500
     60 H3         -24.3890   -21.9220     6.9710 ha         1 RMQ       0.116500
     61 H4         -21.1590   -20.5590     8.3860 hc         1 RMQ       0.065200
     62 H5         -22.8340   -20.8340     8.8160 hc         1 RMQ       0.065200
     63 H6         -22.5790   -23.2590     8.1720 h1         1 RMQ       0.037700
     64 H7         -22.4730   -22.6160    10.4890 hc         1 RMQ       0.039200
     65 H8         -21.3490   -24.0030    10.0880 hc         1 RMQ       0.039200
     66 H9         -20.8610   -29.3590     3.8120 h1         1 RMQ       0.055700
     67 H10        -21.2150   -29.9420     5.4350 h1         1 RMQ       0.055700
     68 H11        -21.6780   -22.8560     1.8870 hc         1 RMQ       0.047478
     69 H12        -19.9500   -22.9250     2.2720 hc         1 RMQ       0.047478
     70 H13        -20.4720   -22.7630     0.5860 hc         1 RMQ       0.047478
     71 H14        -22.8190   -25.0680     0.7200 hc         1 RMQ       0.047478
     72 H15        -21.6980   -24.5620    -0.5570 hc         1 RMQ       0.047478
     73 H16        -21.6680   -26.2240     0.0210 hc         1 RMQ       0.047478
     74 H17        -24.6450   -19.8820     0.1830 h1         1 RMQ       0.080700
     75 H18        -21.9420   -20.2600    -0.8410 hn         1 RMQ       0.330500
     76 H19        -19.7100   -19.3150    -2.2220 ha         1 RMQ       0.121500
     77 H20        -17.8980   -20.8450    -1.5250 ha         1 RMQ       0.116500
     78 H21        -18.1450   -23.3070    -1.8120 ha         1 RMQ       0.117000
     79 H22        -20.2310   -24.2390    -2.8070 ha         1 RMQ       0.116500
     80 H23        -22.0640   -22.7250    -3.5100 ha         1 RMQ       0.121500
     81 H24        -23.5010   -22.7360     0.0910 hc         1 RMQ       0.061200
     82 H25        -24.7730   -22.1880    -0.9570 hc         1 RMQ       0.061200
     83 H26        -24.0680   -23.7490     2.1770 ha         1 RMQ       0.141000
     84 H27        -25.7600   -24.4460     3.8400 ha         1 RMQ       0.144000
     85 H28        -28.0810   -23.5440     3.7240 ha         1 RMQ       0.121000
     86 H29        -28.7040   -21.9510     1.9130 ha         1 RMQ       0.124000
     87 H30        -24.6300   -20.8810     2.5190 hn         1 RMQ       0.150000
     88 H31        -25.0770   -21.6300     4.6170 ha         1 RMQ       0.113500
     89 H33        -19.6280   -22.9030     8.1420 hn         1 RMQ       0.375500
     90 H34        -18.4420   -24.4220     7.1890 h1         1 RMQ       0.086700
     91 H35        -19.2770   -24.1410     4.2630 hc         1 RMQ       0.064700
     92 H36        -19.4820   -21.9700     5.3760 hc         1 RMQ       0.036367
     93 H37        -17.8460   -22.1140     6.0590 hc         1 RMQ       0.036367
     94 H38        -18.0800   -21.9460     4.3050 hc         1 RMQ       0.036367
     95 H39        -17.2680   -25.5760     4.3970 hc         1 RMQ       0.036367
     96 H40        -16.8310   -23.9940     3.7430 hc         1 RMQ       0.036367
     97 H41        -16.4530   -24.3830     5.4340 hc         1 RMQ       0.036367
     98 H42        -19.1730   -26.4740     5.2270 hn         1 RMQ       0.328500
     99 H43        -20.1560   -28.9980     7.3040 h1         1 RMQ       0.065700
    100 H44        -18.4090   -28.9270     7.0110 h1         1 RMQ       0.065700
    101 H45        -22.0400   -27.6950     6.1180 h1         1 RMQ       0.056700
    102 H46        -22.9100   -28.2880     4.7000 h1         1 RMQ       0.056700
    103 H47        -21.6290   -25.8000     4.8660 hn         1 RMQ       0.376500
    104 H48        -19.3450   -26.4050     0.9370 hc         1 RMQ       0.047478
    105 H49        -18.9370   -24.8550     0.1920 hc         1 RMQ       0.047478
    106 H50        -18.6440   -25.1040     1.9230 hc         1 RMQ       0.047478
    107 N3         -23.6670   -20.6010     2.6530 ns         1 RMQ      -0.132000
@<TRIPOS>BOND
     1     1     2 ar  
     2     1    34 ar  
     3     1    58 1   
     4     2     3 ar  
     5     2    59 1   
     6     3     4 ar  
     7     3     5 1   
     8     4    35 ar  
     9     4    60 1   
    10     5     6 1   
    11     5    61 1   
    12     5    62 1   
    13     6     7 1   
    14     6    39 1   
    15     6    63 1   
    16     7    36 1   
    17     7    64 1   
    18     7    65 1   
    19     8    50 1   
    20     8    51 1   
    21     8    66 1   
    22     8    67 1   
    23     9    56 1   
    24     9    68 1   
    25     9    69 1   
    26     9    70 1   
    27    10    56 1   
    28    10    71 1   
    29    10    72 1   
    30    10    73 1   
    31    11    12 2   
    32    12    13 1   
    33    12   107 1   
    34    13    14 1   
    35    13    26 1   
    36    13    74 1   
    37    14    15 1   
    38    14    75 1   
    39    15    16 2   
    40    15    17 1   
    41    17    18 1   
    42    17    19 1   
    43    17    20 1   
    44    20    21 ar  
    45    20    25 ar  
    46    21    22 ar  
    47    21    76 1   
    48    22    23 ar  
    49    22    77 1   
    50    23    24 ar  
    51    23    78 1   
    52    24    25 ar  
    53    24    79 1   
    54    25    80 1   
    55    26    27 1   
    56    26    81 1   
    57    26    82 1   
    58    27    28 ar  
    59    27    32 ar  
    60    28    29 ar  
    61    28    83 1   
    62    29    30 ar  
    63    29    84 1   
    64    30    31 ar  
    65    30    85 1   
    66    31    32 ar  
    67    31    86 1   
    68    32    33 1   
    69    34    35 ar  
    70    34   107 1   
    71    35    88 1   
    72    36    37 1   
    73    36    38 1   
    74    39    40 1   
    75    39    89 1   
    76    40    41 2   
    77    40    42 1   
    78    42    43 1   
    79    42    46 1   
    80    42    90 1   
    81    43    44 1   
    82    43    45 1   
    83    43    91 1   
    84    44    92 1   
    85    44    93 1   
    86    44    94 1   
    87    45    95 1   
    88    45    96 1   
    89    45    97 1   
    90    46    47 1   
    91    46    98 1   
    92    47    48 2   
    93    47    49 1   
    94    49    50 1   
    95    49    99 1   
    96    49   100 1   
    97    51    52 1   
    98    51   101 1   
    99    51   102 1   
   100    52    53 1   
   101    52   103 1   
   102    53    54 2   
   103    53    55 1   
   104    55    56 1   
   105    56    57 1   
   106    57   104 1   
   107    57   105 1   
   108    57   106 1   
   109    87   107 1   
@<TRIPOS>SUBSTRUCTURE
     1 RMQ         1 TEMP              0 ****  ****    0 ROOT
