@<TRIPOS>MOLECULE
RMQ
  107   109     1     0     0
SMALL
bcc


@<TRIPOS>ATOM
      1 C2         -22.2540   -19.8490     4.1180 ca         1 RMQ      -0.136000
      2 C3         -21.8120   -19.9840     5.4270 ca         1 RMQ      -0.114000
      3 C4         -22.6020   -20.5900     6.3970 ca         1 RMQ      -0.053300
      4 C5         -23.8790   -21.0130     6.0340 ca         1 RMQ      -0.114000
      5 C6         -22.0770   -20.8610     7.7740 c3         1 RMQ      -0.048100
      6 C7         -21.6830   -22.3360     7.9530 c3         1 RMQ       0.133700
      7 C8         -21.3040   -22.6490     9.4010 c3         1 RMQ      -0.235400
      8 C17        -21.0070   -28.7450     5.4200 c3         1 RMQ       0.109400
      9 C21        -20.8340   -24.7360     0.3730 c3         1 RMQ      -0.109100
     10 C22        -22.5780   -26.4790    -0.0140 c3         1 RMQ      -0.109100
     11 O8         -22.1250   -21.3410     1.5200 o          1 RMQ      -0.583100
     12 C24        -23.2630   -20.9260     1.4210 c          1 RMQ       0.660100
     13 C25        -24.0720   -21.1400     0.1420 c3         1 RMQ       0.031700
     14 N4         -23.2190   -20.9410    -1.0070 ns         1 RMQ      -0.548900
     15 C33        -22.5260   -19.8050    -1.1400 c          1 RMQ       0.632100
     16 O7         -22.7040   -18.8120    -0.4640 o          1 RMQ      -0.554100
     17 C34        -21.3620   -19.8300    -2.1440 c3         1 RMQ       0.404900
     18 F          -21.6040   -20.7240    -3.1400 f          1 RMQ      -0.228300
     19 F1         -21.2840   -18.6120    -2.7250 f          1 RMQ      -0.228300
     20 C35        -20.0910   -20.1690    -1.4190 ca         1 RMQ      -0.165300
     21 C40        -19.3310   -19.1570    -0.8420 ca         1 RMQ      -0.080000
     22 C39        -18.1990   -19.4760    -0.1050 ca         1 RMQ      -0.130000
     23 C38        -17.8290   -20.8030     0.0670 ca         1 RMQ      -0.099000
     24 C37        -18.5890   -21.8120    -0.5080 ca         1 RMQ      -0.130000
     25 C36        -19.7190   -21.4990    -1.2490 ca         1 RMQ      -0.080000
     26 C26        -24.5970   -22.5870     0.1170 c3         1 RMQ      -0.035100
     27 C27        -25.2380   -23.0350     1.4010 ca         1 RMQ      -0.095300
     28 C32        -24.5130   -23.8190     2.2980 ca         1 RMQ      -0.098000
     29 C31        -25.0630   -24.2610     3.4910 ca         1 RMQ      -0.099000
     30 C30        -26.3690   -23.9250     3.8120 ca         1 RMQ      -0.116000
     31 C29        -27.1150   -23.1440     2.9430 ca         1 RMQ      -0.132000
     32 C28        -26.5440   -22.7100     1.7550 ca         1 RMQ       0.022400
     33 CL         -27.5050   -21.7290     0.6910 cl         1 RMQ      -0.135400
     34 C1         -23.5010   -20.3410     3.7590 ca         1 RMQ       0.022600
     35 C          -24.3260   -20.9010     4.7290 ca         1 RMQ      -0.136000
     36 C9         -20.0350   -21.9620     9.9460 c          1 RMQ       0.934600
     37 O1         -19.1660   -21.6090     9.1110 o          1 RMQ      -0.840300
     38 O          -19.9570   -21.8430    11.1800 o          1 RMQ      -0.840300
     39 N          -20.5990   -22.7240     7.0690 ns         1 RMQ      -0.518900
     40 C10        -20.6820   -23.6520     6.1190 c          1 RMQ       0.656100
     41 O6         -21.7380   -24.1360     5.7100 o          1 RMQ      -0.698100
     42 C11        -19.3470   -24.1360     5.5390 c3         1 RMQ       0.035700
     43 C12        -19.1990   -23.7550     4.0600 c3         1 RMQ      -0.068700
     44 C14        -19.3140   -22.2480     3.8730 c3         1 RMQ      -0.089600
     45 C13        -17.8730   -24.2550     3.4930 c3         1 RMQ      -0.089600
     46 N1         -19.2950   -25.5760     5.6810 ns         1 RMQ      -0.555900
     47 C15        -19.3000   -26.1890     6.8710 c          1 RMQ       0.629100
     48 O5         -19.2050   -25.6040     7.9400 o          1 RMQ      -0.578100
     49 C16        -19.3860   -27.7070     6.8290 c3         1 RMQ       0.039400
     50 O2         -19.6970   -28.2360     5.5680 os         1 RMQ      -0.412600
     51 C18        -22.1000   -27.6900     5.2930 c3         1 RMQ       0.089000
     52 N2         -21.8940   -26.7310     4.2350 ns         1 RMQ      -0.574900
     53 C19        -21.8830   -27.0800     2.9340 c          1 RMQ       0.761100
     54 O4         -22.1260   -28.1980     2.5230 o          1 RMQ      -0.624000
     55 O3         -21.5650   -26.0270     2.1720 os         1 RMQ      -0.449900
     56 C20        -21.3050   -26.1360     0.7490 c3         1 RMQ       0.198800
     57 C23        -20.1840   -27.1300     0.4630 c3         1 RMQ      -0.109100
     58 H1         -21.6200   -19.3760     3.3810 ha         1 RMQ       0.131500
     59 H2         -20.8250   -19.6230     5.6900 ha         1 RMQ       0.134500
     60 H3         -24.5240   -21.4680     6.7770 ha         1 RMQ       0.134500
     61 H4         -21.2170   -20.2240     7.9890 hc         1 RMQ       0.065200
     62 H5         -22.8410   -20.6310     8.5220 hc         1 RMQ       0.065200
     63 H6         -22.5510   -22.9430     7.6900 h1         1 RMQ       0.037700
     64 H7         -22.1530   -22.4090    10.0460 hc         1 RMQ       0.039200
     65 H8         -21.1590   -23.7320     9.4910 hc         1 RMQ       0.039200
     66 H9         -20.9860   -29.3660     4.5260 h1         1 RMQ       0.055700
     67 H10        -21.2660   -29.3980     6.2630 h1         1 RMQ       0.055700
     68 H11        -21.5920   -23.9810     0.5840 hc         1 RMQ       0.047478
     69 H12        -19.9240   -24.4650     0.9130 hc         1 RMQ       0.047478
     70 H13        -20.6130   -24.6960    -0.6940 hc         1 RMQ       0.047478
     71 H14        -23.3760   -25.7710     0.2190 hc         1 RMQ       0.047478
     72 H15        -22.3840   -26.4140    -1.0860 hc         1 RMQ       0.047478
     73 H16        -22.9340   -27.4840     0.2010 hc         1 RMQ       0.047478
     74 H17        -24.9160   -20.4460     0.1050 h1         1 RMQ       0.080700
     75 H18        -22.9970   -21.7410    -1.5800 hn         1 RMQ       0.330500
     76 H19        -19.6120   -18.1190    -0.9550 ha         1 RMQ       0.139500
     77 H20        -17.6100   -18.6850     0.3390 ha         1 RMQ       0.134500
     78 H21        -16.9500   -21.0500     0.6480 ha         1 RMQ       0.135000
     79 H22        -18.3070   -22.8490    -0.3750 ha         1 RMQ       0.134500
     80 H23        -20.3040   -22.3010    -1.6810 ha         1 RMQ       0.139500
     81 H24        -23.7580   -23.2540    -0.0930 hc         1 RMQ       0.061200
     82 H25        -25.2930   -22.6840    -0.7190 hc         1 RMQ       0.061200
     83 H26        -23.4950   -24.0900     2.0500 ha         1 RMQ       0.159000
     84 H27        -24.4710   -24.8690     4.1620 ha         1 RMQ       0.162000
     85 H28        -26.8130   -24.2640     4.7390 ha         1 RMQ       0.139000
     86 H29        -28.1350   -22.8750     3.1840 ha         1 RMQ       0.142000
     87 H30        -24.9090   -20.0840     2.2580 hn         1 RMQ       0.316500
     88 H31        -25.3050   -21.2730     4.4520 ha         1 RMQ       0.131500
     89 H33        -19.6930   -22.4350     7.4280 hn         1 RMQ       0.375500
     90 H34        -18.5150   -23.6910     6.0950 h1         1 RMQ       0.086700
     91 H35        -20.0140   -24.2320     3.5060 hc         1 RMQ       0.064700
     92 H36        -20.2950   -21.8660     4.1530 hc         1 RMQ       0.036367
     93 H37        -18.5650   -21.7210     4.4680 hc         1 RMQ       0.036367
     94 H38        -19.1520   -21.9840     2.8280 hc         1 RMQ       0.036367
     95 H39        -17.7690   -25.3390     3.5420 hc         1 RMQ       0.036367
     96 H40        -17.7840   -23.9680     2.4440 hc         1 RMQ       0.036367
     97 H41        -17.0290   -23.8140     4.0290 hc         1 RMQ       0.036367
     98 H42        -19.4510   -26.1470     4.8650 hn         1 RMQ       0.328500
     99 H43        -20.1020   -28.0170     7.5980 h1         1 RMQ       0.065700
    100 H44        -18.4080   -28.0920     7.1380 h1         1 RMQ       0.065700
    101 H45        -22.1830   -27.1180     6.2190 h1         1 RMQ       0.056700
    102 H46        -23.0490   -28.2200     5.1740 h1         1 RMQ       0.056700
    103 H47        -21.7640   -25.7620     4.5080 hn         1 RMQ       0.376500
    104 H48        -20.4780   -28.1610     0.6420 hc         1 RMQ       0.047478
    105 H49        -19.8940   -27.0440    -0.5850 hc         1 RMQ       0.047478
    106 H50        -19.3030   -26.9050     1.0670 hc         1 RMQ       0.047478
    107 N3         -23.9390   -20.3160     2.4180 ns         1 RMQ      -0.458100
@<TRIPOS>BOND
     1     1     2 ar  
     2     1    34 ar  
     3     1    58 1   
     4     2     3 ar  
     5     2    59 1   
     6     3     4 ar  
     7     3     5 1   
     8     4    35 ar  
     9     4    60 1   
    10     5     6 1   
    11     5    61 1   
    12     5    62 1   
    13     6     7 1   
    14     6    39 1   
    15     6    63 1   
    16     7    36 1   
    17     7    64 1   
    18     7    65 1   
    19     8    50 1   
    20     8    51 1   
    21     8    66 1   
    22     8    67 1   
    23     9    56 1   
    24     9    68 1   
    25     9    69 1   
    26     9    70 1   
    27    10    56 1   
    28    10    71 1   
    29    10    72 1   
    30    10    73 1   
    31    11    12 2   
    32    12    13 1   
    33    12   107 1   
    34    13    14 1   
    35    13    26 1   
    36    13    74 1   
    37    14    15 1   
    38    14    75 1   
    39    15    16 2   
    40    15    17 1   
    41    17    18 1   
    42    17    19 1   
    43    17    20 1   
    44    20    21 ar  
    45    20    25 ar  
    46    21    22 ar  
    47    21    76 1   
    48    22    23 ar  
    49    22    77 1   
    50    23    24 ar  
    51    23    78 1   
    52    24    25 ar  
    53    24    79 1   
    54    25    80 1   
    55    26    27 1   
    56    26    81 1   
    57    26    82 1   
    58    27    28 ar  
    59    27    32 ar  
    60    28    29 ar  
    61    28    83 1   
    62    29    30 ar  
    63    29    84 1   
    64    30    31 ar  
    65    30    85 1   
    66    31    32 ar  
    67    31    86 1   
    68    32    33 1   
    69    34    35 ar  
    70    34   107 1   
    71    35    88 1   
    72    36    37 1   
    73    36    38 1   
    74    39    40 1   
    75    39    89 1   
    76    40    41 2   
    77    40    42 1   
    78    42    43 1   
    79    42    46 1   
    80    42    90 1   
    81    43    44 1   
    82    43    45 1   
    83    43    91 1   
    84    44    92 1   
    85    44    93 1   
    86    44    94 1   
    87    45    95 1   
    88    45    96 1   
    89    45    97 1   
    90    46    47 1   
    91    46    98 1   
    92    47    48 2   
    93    47    49 1   
    94    49    50 1   
    95    49    99 1   
    96    49   100 1   
    97    51    52 1   
    98    51   101 1   
    99    51   102 1   
   100    52    53 1   
   101    52   103 1   
   102    53    54 2   
   103    53    55 1   
   104    55    56 1   
   105    56    57 1   
   106    57   104 1   
   107    57   105 1   
   108    57   106 1   
   109    87   107 1   
@<TRIPOS>SUBSTRUCTURE
     1 RMQ         1 TEMP              0 ****  ****    0 ROOT
