@<TRIPOS>MOLECULE
RMR
   41    42     1     0     0
SMALL
abcg2


@<TRIPOS>ATOM
      1 C1          -2.3450     1.4620     0.0290 ca         1 RMR      -0.194500
      2 C2          -1.3380     0.5220     0.2030 ca         1 RMR      -0.080600
      3 C3          -1.6210    -0.8400     0.1850 ca         1 RMR      -0.194500
      4 C4          -2.9300    -1.2670    -0.0210 ca         1 RMR       0.149600
      5 C5          -3.9460    -0.3290    -0.2210 ca         1 RMR       0.043100
      6 C6          -3.6520     1.0380    -0.1910 ca         1 RMR       0.149600
      7 C7           0.0490     1.0300     0.4400 c          1 RMR       0.608700
      8 N8           1.0480     0.2190     0.0530 ns         1 RMR      -0.504900
      9 C9           2.4420     0.5770     0.1970 c3         1 RMR       0.101000
     10 C10          3.3190    -0.6590     0.0170 c3         1 RMR      -0.020100
     11 C11          4.7710    -0.3390     0.1520 cc         1 RMR      -0.211300
     12 S12          5.6230     0.5030    -1.0900 ss         1 RMR       0.188000
     13 C13          7.0840     0.5000    -0.1900 cc         1 RMR      -0.233000
     14 C14          6.9240    -0.1200     1.0090 cd         1 RMR      -0.131000
     15 C15          5.5980    -0.5990     1.2040 cd         1 RMR      -0.126000
     16 O16         -4.6950     1.8580    -0.3900 os         1 RMR      -0.323100
     17 C17         -4.4670     3.2540    -0.3760 c3         1 RMR       0.144400
     18 O18         -5.2150    -0.7440    -0.4570 os         1 RMR      -0.329100
     19 C19         -6.0060    -0.9030     0.7160 c3         1 RMR       0.148900
     20 O20         -3.3150    -2.5530    -0.0450 os         1 RMR      -0.323100
     21 C21         -2.3270    -3.5560     0.0920 c3         1 RMR       0.144400
     22 O22          0.2470     2.1210     0.9570 o          1 RMR      -0.597100
     23 H1          -2.0970     2.5140     0.0620 ha         1 RMR       0.131500
     24 H2          -0.8370    -1.5610     0.3690 ha         1 RMR       0.131500
     25 H3           0.8320    -0.5670    -0.5400 hn         1 RMR       0.313500
     26 H4           2.7200     1.3460    -0.5300 h1         1 RMR       0.059200
     27 H5           2.6060     0.9990     1.1890 h1         1 RMR       0.059200
     28 H6           3.0590    -1.4030     0.7730 hc         1 RMR       0.053700
     29 H7           3.1190    -1.1120    -0.9580 hc         1 RMR       0.053700
     30 H9           7.9760     0.9500    -0.5960 h4         1 RMR       0.151000
     31 H11          7.7210    -0.2370     1.7300 ha         1 RMR       0.135000
     32 H13          5.2680    -1.1190     2.0940 ha         1 RMR       0.134000
     33 H15         -4.0890     3.5960     0.5910 h1         1 RMR       0.043700
     34 H16         -3.7680     3.5610    -1.1580 h1         1 RMR       0.043700
     35 H17         -5.4290     3.7240    -0.5630 h1         1 RMR       0.043700
     36 H18         -5.5850    -1.6550     1.3880 h1         1 RMR       0.035367
     37 H19         -6.1110     0.0370     1.2620 h1         1 RMR       0.035367
     38 H20         -6.9920    -1.2340     0.3960 h1         1 RMR       0.035367
     39 H21         -2.8410    -4.5090    -0.0050 h1         1 RMR       0.043700
     40 H22         -1.5640    -3.4840    -0.6870 h1         1 RMR       0.043700
     41 H23         -1.8400    -3.5190     1.0700 h1         1 RMR       0.043700
@<TRIPOS>BOND
     1     1     2 ar  
     2     1     6 ar  
     3     1    23 1   
     4     2     3 ar  
     5     2     7 1   
     6     3     4 ar  
     7     3    24 1   
     8     4     5 ar  
     9     4    20 1   
    10     5     6 ar  
    11     5    18 1   
    12     6    16 1   
    13     7     8 1   
    14     7    22 2   
    15     8     9 1   
    16     8    25 1   
    17     9    10 1   
    18     9    26 1   
    19     9    27 1   
    20    10    11 1   
    21    10    28 1   
    22    10    29 1   
    23    11    12 1   
    24    11    15 2   
    25    12    13 1   
    26    13    14 2   
    27    13    30 1   
    28    14    15 1   
    29    14    31 1   
    30    15    32 1   
    31    16    17 1   
    32    17    33 1   
    33    17    34 1   
    34    17    35 1   
    35    18    19 1   
    36    19    36 1   
    37    19    37 1   
    38    19    38 1   
    39    20    21 1   
    40    21    39 1   
    41    21    40 1   
    42    21    41 1   
@<TRIPOS>SUBSTRUCTURE
     1 RMR         1 TEMP              0 ****  ****    0 ROOT
