@<TRIPOS>MOLECULE
RMR
   41    42     1     0     0
SMALL
No Charge or Current Charge


@<TRIPOS>ATOM
      1 C1          -2.4330     1.3580     0.2160 ca         1 RMR      -0.194500
      2 C2          -1.3270     0.4830     0.1800 ca         1 RMR      -0.080600
      3 C3          -1.5760    -0.9060     0.1030 ca         1 RMR      -0.194500
      4 C4          -2.8960    -1.4060     0.0620 ca         1 RMR       0.149600
      5 C5          -4.0020    -0.5240     0.0980 ca         1 RMR       0.043100
      6 C6          -3.7650     0.8820     0.1760 ca         1 RMR       0.149600
      7 C7           0.0860     1.0560     0.2260 c          1 RMR       0.608700
      8 N8           1.1270     0.1520     0.1890 ns         1 RMR      -0.504900
      9 C9           2.5440     0.5210     0.2240 c3         1 RMR       0.101000
     10 C10          3.4650    -0.7080     0.1160 c3         1 RMR      -0.020100
     11 C11          4.9260    -0.3440     0.1540 cc         1 RMR      -0.211300
     12 S12          5.7360     0.3480    -1.2520 ss         1 RMR       0.188000
     13 C13          7.2590     0.4380    -0.3720 cc         1 RMR      -0.233000
     14 C14          7.1180    -0.0410     0.9050 cd         1 RMR      -0.131000
     15 C15          5.8010    -0.4830     1.2020 cd         1 RMR      -0.126000
     16 O16         -4.8240     1.7760     0.2140 os         1 RMR      -0.323100
     17 C17         -4.6540     3.2030     0.2920 c3         1 RMR       0.144400
     18 O18         -5.2670    -1.1160     0.0530 os         1 RMR      -0.329100
     19 C19         -6.5170    -0.4040     0.0780 c3         1 RMR       0.148900
     20 O20         -3.1520    -2.7670    -0.0150 os         1 RMR      -0.323100
     21 C21         -2.1100    -3.7590    -0.0580 c3         1 RMR       0.144400
     22 O22          0.3050     2.2590     0.2930 o          1 RMR      -0.597100
     23 H1          -2.2350     2.4240     0.2760 ha         1 RMR       0.131500
     24 H2          -0.7420    -1.5990     0.0740 ha         1 RMR       0.131500
     25 H3           0.8820    -0.8280     0.1360 hn         1 RMR       0.313500
     26 H4           2.7520     1.2080    -0.6070 h1         1 RMR       0.059200
     27 H5           2.7500     1.0500     1.1650 h1         1 RMR       0.059200
     28 H6           3.2350    -1.4010     0.9360 hc         1 RMR       0.053700
     29 H7           3.2440    -1.2420    -0.8160 hc         1 RMR       0.053700
     30 H9           8.1380     0.8350    -0.8630 h4         1 RMR       0.151000
     31 H11          7.9340    -0.0780     1.6210 ha         1 RMR       0.135000
     32 H13          5.5150    -0.8910     2.1680 ha         1 RMR       0.134000
     33 H15         -4.1160     3.4820     1.2070 h1         1 RMR       0.043700
     34 H16         -4.0970     3.5790    -0.5760 h1         1 RMR       0.043700
     35 H17         -5.6310     3.7000     0.3090 h1         1 RMR       0.043700
     36 H18         -6.6200     0.1750     1.0050 h1         1 RMR       0.035367
     37 H19         -6.6020     0.2720    -0.7830 h1         1 RMR       0.035367
     38 H20         -7.3530    -1.1120     0.0310 h1         1 RMR       0.035367
     39 H21         -2.5460    -4.7640    -0.1170 h1         1 RMR       0.043700
     40 H22         -1.4700    -3.6150    -0.9370 h1         1 RMR       0.043700
     41 H23         -1.4880    -3.7120     0.8460 h1         1 RMR       0.043700
@<TRIPOS>BOND
     1     1     2 ar  
     2     1     6 ar  
     3     1    23 1   
     4     2     3 ar  
     5     2     7 1   
     6     3     4 ar  
     7     3    24 1   
     8     4     5 ar  
     9     4    20 1   
    10     5     6 ar  
    11     5    18 1   
    12     6    16 1   
    13     7     8 1   
    14     7    22 2   
    15     8     9 1   
    16     8    25 1   
    17     9    10 1   
    18     9    26 1   
    19     9    27 1   
    20    10    11 1   
    21    10    28 1   
    22    10    29 1   
    23    11    12 1   
    24    11    15 2   
    25    12    13 1   
    26    13    14 2   
    27    13    30 1   
    28    14    15 1   
    29    14    31 1   
    30    15    32 1   
    31    16    17 1   
    32    17    33 1   
    33    17    34 1   
    34    17    35 1   
    35    18    19 1   
    36    19    36 1   
    37    19    37 1   
    38    19    38 1   
    39    20    21 1   
    40    21    39 1   
    41    21    40 1   
    42    21    41 1   
@<TRIPOS>SUBSTRUCTURE
     1 RMR         1 TEMP              0 ****  ****    0 ROOT
