@<TRIPOS>MOLECULE
RMS
   47    50     1     0     0
SMALL
No Charge or Current Charge


@<TRIPOS>ATOM
      1 C10         20.4540   -11.5140    42.5330 c6         1 RMS       0.169800
      2 C11         19.8620   -12.6350    43.4360 c6         1 RMS      -0.073400
      3 C12         19.3410   -12.1090    44.7980 c6         1 RMS      -0.063400
      4 C13         20.3220   -11.0680    45.3810 c6         1 RMS      -0.073400
      5 C19         21.2870   -12.6490    35.4690 cc         1 RMS      -0.062400
      6 C20         20.1730   -13.2750    34.9920 cd         1 RMS      -0.105600
      7 C21         20.5700   -14.5590    34.3100 c5         1 RMS      -0.003200
      8 C23         22.5590   -13.3690    35.1620 c5         1 RMS      -0.018200
      9 C02         21.7410   -10.5080    36.8390 ca         1 RMS       0.445900
     10 N03         21.2180    -9.4420    37.4570 nb         1 RMS      -0.305000
     11 C04         19.8690    -9.3150    37.4180 ca         1 RMS       0.288300
     12 S05         19.1550    -7.9000    38.2430 ss         1 RMS      -0.311300
     13 C06         20.0540    -7.8340    39.8600 c3         1 RMS       0.043600
     14 C07         19.7500    -9.0830    40.7130 c3         1 RMS      -0.072400
     15 N09         20.0890   -10.1480    43.0090 n3         1 RMS      -0.723600
     16 C14         20.6070    -9.9040    44.3880 c6         1 RMS       0.169800
     17 N15         19.0060   -10.1610    36.8130 nb         1 RMS      -0.176000
     18 C16         19.5610   -11.2220    36.2020 ca         1 RMS       0.181300
     19 S17         18.6230   -12.4780    35.3530 ss         1 RMS      -0.081900
     20 C18         20.9290   -11.4430    36.1870 ca         1 RMS      -0.233800
     21 C22         22.1230   -14.4240    34.0910 c5         1 RMS      -0.075400
     22 H1          20.1020   -11.6890    41.5070 h1         1 RMS       0.027950
     23 H2          21.5490   -11.6160    42.5130 h1         1 RMS       0.027950
     24 H3          19.0400   -13.1370    42.9080 hc         1 RMS       0.038950
     25 H4          20.6300   -13.4020    43.6020 hc         1 RMS       0.038950
     26 H5          18.3540   -11.6460    44.6630 hc         1 RMS       0.043700
     27 H6          19.2020   -12.9430    45.5000 hc         1 RMS       0.043700
     28 H7          21.2690   -11.5670    45.6300 hc         1 RMS       0.038950
     29 H8          19.9300   -10.6660    46.3250 hc         1 RMS       0.038950
     30 H9          20.0410   -14.7110    33.3620 hc         1 RMS       0.056200
     31 H10         20.3390   -15.4240    34.9420 hc         1 RMS       0.056200
     32 H11         22.9550   -13.8540    36.0610 hc         1 RMS       0.048200
     33 H12         23.3350   -12.6980    34.7760 hc         1 RMS       0.048200
     34 H13         23.5810   -10.0290    37.5750 hn         1 RMS       0.500500
     35 H14         23.5140   -11.5110    36.6880 hn         1 RMS       0.500500
     36 H15         21.1330    -7.7580    39.6740 h1         1 RMS       0.074200
     37 H16         19.7350    -6.9340    40.4010 h1         1 RMS       0.074200
     38 H17         18.6680    -9.1500    40.8780 hc         1 RMS       0.061200
     39 H18         20.0520    -9.9750    40.1560 hc         1 RMS       0.061200
     40 H19         21.5540    -9.0690    41.9080 h1         1 RMS       0.026700
     41 H20         20.2340    -8.0900    42.5530 h1         1 RMS       0.026700
     42 H22         21.6930    -9.7270    44.3630 h1         1 RMS       0.027950
     43 H23         20.1510    -8.9870    44.7890 h1         1 RMS       0.027950
     44 H24         22.6500   -15.3790    34.1960 hc         1 RMS       0.046700
     45 H25         22.3310   -14.0490    33.0820 hc         1 RMS       0.046700
     46 C08         20.4680    -9.0540    42.0800 c3         1 RMS       0.174800
     47 N01         23.0910   -10.6140    36.9040 nv         1 RMS      -1.076900
@<TRIPOS>BOND
     1     1     2 1   
     2     1    15 1   
     3     1    22 1   
     4     1    23 1   
     5     2     3 1   
     6     2    24 1   
     7     2    25 1   
     8     3     4 1   
     9     3    26 1   
    10     3    27 1   
    11     4    16 1   
    12     4    28 1   
    13     4    29 1   
    14     5     6 2   
    15     5     8 1   
    16     5    20 1   
    17     6     7 1   
    18     6    19 1   
    19     7    21 1   
    20     7    30 1   
    21     7    31 1   
    22     8    21 1   
    23     8    32 1   
    24     8    33 1   
    25     9    10 ar  
    26     9    20 ar  
    27     9    47 1   
    28    10    11 ar  
    29    11    12 1   
    30    11    17 ar  
    31    12    13 1   
    32    13    14 1   
    33    13    36 1   
    34    13    37 1   
    35    14    38 1   
    36    14    39 1   
    37    14    46 1   
    38    15    16 1   
    39    15    46 1   
    40    16    42 1   
    41    16    43 1   
    42    17    18 ar  
    43    18    19 1   
    44    18    20 ar  
    45    21    44 1   
    46    21    45 1   
    47    34    47 1   
    48    35    47 1   
    49    40    46 1   
    50    41    46 1   
@<TRIPOS>SUBSTRUCTURE
     1 RMS         1 TEMP              0 ****  ****    0 ROOT
