@<TRIPOS>MOLECULE
RMS
   47    50     1     0     0
SMALL
abcg2


@<TRIPOS>ATOM
      1 C10         20.8690   -11.2500    42.7640 c6         1 RMS       0.169800
      2 C11         20.2860   -12.4150    43.5730 c6         1 RMS      -0.073400
      3 C12         19.7490   -11.9250    44.9220 c6         1 RMS      -0.063400
      4 C13         20.5880   -10.7550    45.4150 c6         1 RMS      -0.073400
      5 C19         21.2560   -12.7200    35.2930 cc         1 RMS      -0.062400
      6 C20         20.4200   -12.8660    34.2430 cd         1 RMS      -0.105600
      7 C21         20.7790   -13.9920    33.3340 c5         1 RMS      -0.003200
      8 C23         22.3470   -13.7470    35.2570 c5         1 RMS      -0.018200
      9 C02         21.3790   -11.1580    37.3810 ca         1 RMS       0.445900
     10 N03         20.7630   -10.1510    38.0010 nb         1 RMS      -0.305000
     11 C04         19.6490    -9.6700    37.4730 ca         1 RMS       0.288300
     12 S05         18.8250    -8.3440    38.2830 ss         1 RMS      -0.311300
     13 C06         19.7810    -8.1350    39.8080 c3         1 RMS       0.043600
     14 C07         19.5190    -9.2160    40.8430 c3         1 RMS      -0.072400
     15 N09         20.1560   -10.0280    43.0920 n3         1 RMS      -0.723600
     16 C14         20.5200    -9.5800    44.4290 c6         1 RMS       0.169800
     17 N15         19.0470   -10.0620    36.3630 nb         1 RMS      -0.176000
     18 C16         19.6680   -11.0620    35.7450 ca         1 RMS       0.181300
     19 S17         19.0860   -11.7620    34.2630 ss         1 RMS      -0.081900
     20 C18         20.8420   -11.6800    36.1800 ca         1 RMS      -0.233800
     21 C22         22.2030   -14.3390    33.8340 c5         1 RMS      -0.075400
     22 H1          20.7760   -11.4590    41.6980 h1         1 RMS       0.027950
     23 H2          21.9510   -11.1420    42.9570 h1         1 RMS       0.027950
     24 H3          19.4860   -12.8970    43.0070 hc         1 RMS       0.038950
     25 H4          21.0610   -13.1700    43.7220 hc         1 RMS       0.038950
     26 H5          18.7080   -11.6090    44.8200 hc         1 RMS       0.043700
     27 H6          19.7560   -12.7370    45.6520 hc         1 RMS       0.043700
     28 H7          21.6240   -11.0870    45.5340 hc         1 RMS       0.038950
     29 H8          20.2620   -10.4250    46.4030 hc         1 RMS       0.038950
     30 H9          20.7700   -13.7200    32.2770 hc         1 RMS       0.056200
     31 H10         20.0840   -14.8280    33.4540 hc         1 RMS       0.056200
     32 H11         22.1900   -14.5050    36.0310 hc         1 RMS       0.048200
     33 H12         23.3440   -13.3320    35.4180 hc         1 RMS       0.048200
     34 H13         22.8310   -11.2480    38.7970 hn         1 RMS       0.500500
     35 H14         23.0010   -12.4080    37.5370 hn         1 RMS       0.500500
     36 H15         20.8380    -8.0770    39.5500 h1         1 RMS       0.074200
     37 H16         19.4800    -7.1540    40.1810 h1         1 RMS       0.074200
     38 H17         18.4550    -9.2430    41.0900 hc         1 RMS       0.061200
     39 H18         19.7750   -10.1850    40.4110 hc         1 RMS       0.061200
     40 H19         21.3860    -8.8100    41.8670 h1         1 RMS       0.026700
     41 H20         19.9750    -8.0370    42.5680 h1         1 RMS       0.026700
     42 H22         21.4880    -9.0510    44.4260 h1         1 RMS       0.027950
     43 H23         19.7710    -8.8520    44.7580 h1         1 RMS       0.027950
     44 H24         22.3910   -15.4110    33.8150 hc         1 RMS       0.046700
     45 H25         22.9360   -13.8700    33.1760 hc         1 RMS       0.046700
     46 C08         20.3220    -8.9710    42.1150 c3         1 RMS       0.174800
     47 N01         22.4980   -11.6340    37.9310 nv         1 RMS      -1.076900
@<TRIPOS>BOND
     1     1     2 1   
     2     1    15 1   
     3     1    22 1   
     4     1    23 1   
     5     2     3 1   
     6     2    24 1   
     7     2    25 1   
     8     3     4 1   
     9     3    26 1   
    10     3    27 1   
    11     4    16 1   
    12     4    28 1   
    13     4    29 1   
    14     5     6 2   
    15     5     8 1   
    16     5    20 1   
    17     6     7 1   
    18     6    19 1   
    19     7    21 1   
    20     7    30 1   
    21     7    31 1   
    22     8    21 1   
    23     8    32 1   
    24     8    33 1   
    25     9    10 ar  
    26     9    20 ar  
    27     9    47 1   
    28    10    11 ar  
    29    11    12 1   
    30    11    17 ar  
    31    12    13 1   
    32    13    14 1   
    33    13    36 1   
    34    13    37 1   
    35    14    38 1   
    36    14    39 1   
    37    14    46 1   
    38    15    16 1   
    39    15    46 1   
    40    16    42 1   
    41    16    43 1   
    42    17    18 ar  
    43    18    19 1   
    44    18    20 ar  
    45    21    44 1   
    46    21    45 1   
    47    34    47 1   
    48    35    47 1   
    49    40    46 1   
    50    41    46 1   
@<TRIPOS>SUBSTRUCTURE
     1 RMS         1 TEMP              0 ****  ****    0 ROOT
