@<TRIPOS>MOLECULE
RMU
   31    32     1     0     0
SMALL
No Charge or Current Charge


@<TRIPOS>ATOM
      1 C16        -45.1190   -26.7810     1.3180 ca         1 RMU      -0.038000
      2 C17        -45.2040   -25.6590     0.4300 cg         1 RMU       0.317000
      3 C14        -45.5000   -26.6660     2.6720 ca         1 RMU       0.464000
      4 C12        -44.9820   -28.8880     3.0840 ca         1 RMU       0.389900
      5 C11        -44.5780   -29.1120     1.7360 ca         1 RMU       0.179000
      6 C19        -44.6500   -28.0240     0.8470 ca         1 RMU      -0.065000
      7 C02        -45.1440   -33.0580    -0.4540 cc         1 RMU       0.318300
      8 C04        -43.2950   -33.8060    -1.4120 cc         1 RMU       0.074500
      9 C05        -42.9270   -33.2100    -0.2340 cd         1 RMU      -0.069000
     10 C06        -44.1100   -32.7300     0.3820 cd         1 RMU      -0.442500
     11 N10        -44.1040   -30.3490     1.2590 nu         1 RMU      -0.854100
     12 N13        -45.4350   -27.6940     3.5480 nb         1 RMU      -0.647000
     13 N18        -45.2680   -24.7530    -0.3030 n1         1 RMU      -0.408000
     14 N22        -41.0830   -34.4830    -2.1470 nt         1 RMU      -0.601000
     15 O03        -44.6630   -33.7180    -1.5620 os         1 RMU      -0.199000
     16 O08        -45.6370   -31.9200     2.4340 o          1 RMU      -0.533000
     17 O09        -43.0770   -32.0480     2.7520 o          1 RMU      -0.533000
     18 O21        -42.8150   -34.9760    -3.4500 o          1 RMU      -0.572100
     19 S07        -44.2690   -31.8810     1.9190 sy         1 RMU       1.215600
     20 Cl15       -46.0980   -25.1480     3.3450 cl         1 RMU      -0.126000
     21 H121       -44.9340   -29.6900     3.8180 h4         1 RMU       0.065100
     22 H191       -44.3470   -28.1420    -0.1910 ha         1 RMU       0.139000
     23 H011       -47.1240   -33.1100    -1.2920 hc         1 RMU       0.084700
     24 H012       -47.0600   -33.3870     0.4580 hc         1 RMU       0.084700
     25 H013       -46.8290   -31.7500    -0.1940 hc         1 RMU       0.084700
     26 H051       -41.9170   -33.1230     0.1600 ha         1 RMU       0.159000
     27 H101       -43.9300   -30.4670     0.2700 hn         1 RMU       0.488000
     28 H221       -40.4540   -34.9200    -2.8040 hn         1 RMU       0.325500
     29 H222       -40.7240   -34.0670    -1.3010 hn         1 RMU       0.325500
     30 C20        -42.4120   -34.4640    -2.4170 c          1 RMU       0.533600
     31 C01        -46.6210   -32.8120    -0.3650 c3         1 RMU      -0.161400
@<TRIPOS>BOND
     1     1     2 1   
     2     1     3 ar  
     3     1     6 ar  
     4     2    13 3   
     5     3    12 ar  
     6     3    20 1   
     7     4     5 ar  
     8     4    12 ar  
     9     4    21 1   
    10     5     6 ar  
    11     5    11 1   
    12     6    22 1   
    13     7    10 2   
    14     7    15 1   
    15     7    31 1   
    16     8     9 2   
    17     8    15 1   
    18     8    30 1   
    19     9    10 1   
    20     9    26 1   
    21    10    19 1   
    22    11    19 1   
    23    11    27 1   
    24    14    28 1   
    25    14    29 1   
    26    14    30 1   
    27    16    19 2   
    28    17    19 2   
    29    18    30 2   
    30    23    31 1   
    31    24    31 1   
    32    25    31 1   
@<TRIPOS>SUBSTRUCTURE
     1 RMU         1 TEMP              0 ****  ****    0 ROOT
