@<TRIPOS>MOLECULE
RMU
   31    32     1     0     0
SMALL
abcg2


@<TRIPOS>ATOM
      1 C16        -44.9530   -27.9590     0.5430 ca         1 RMU      -0.038000
      2 C17        -44.7230   -27.2100    -0.6460 cg         1 RMU       0.317000
      3 C14        -46.1290   -27.8160     1.2940 ca         1 RMU       0.464000
      4 C12        -45.4450   -29.3430     2.8400 ca         1 RMU       0.389900
      5 C11        -44.2540   -29.5870     2.1570 ca         1 RMU       0.179000
      6 C19        -44.0070   -28.8800     0.9890 ca         1 RMU      -0.065000
      7 C02        -45.1270   -32.2600     0.0990 cc         1 RMU       0.318300
      8 C04        -43.5420   -32.9030    -1.3080 cc         1 RMU       0.074500
      9 C05        -42.9540   -32.8640    -0.0850 cd         1 RMU      -0.069000
     10 C06        -43.9770   -32.4580     0.8260 cd         1 RMU      -0.442500
     11 N10        -43.3250   -30.5390     2.6450 nu         1 RMU      -0.854100
     12 N13        -46.3620   -28.4820     2.4010 nb         1 RMU      -0.647000
     13 N18        -44.5170   -26.6090    -1.6070 n1         1 RMU      -0.408000
     14 N22        -41.8350   -33.7560    -2.7450 nt         1 RMU      -0.601000
     15 O03        -44.8600   -32.5330    -1.1960 os         1 RMU      -0.199000
     16 O08        -44.9610   -32.3370     3.2240 o          1 RMU      -0.533000
     17 O09        -42.5350   -32.8660     2.9310 o          1 RMU      -0.533000
     18 O21        -43.7840   -33.0300    -3.6530 o          1 RMU      -0.572100
     19 S07        -43.7180   -32.1600     2.5220 sy         1 RMU       1.215600
     20 CL15       -47.3550   -26.7040     0.7650 cl         1 RMU      -0.126000
     21 H121       -45.6620   -29.8660     3.7620 h4         1 RMU       0.065100
     22 H191       -43.0970   -29.0400     0.4260 ha         1 RMU       0.139000
     23 H011       -47.2250   -32.4930    -0.0480 hc         1 RMU       0.084700
     24 H012       -46.6570   -31.8170     1.4940 hc         1 RMU       0.084700
     25 H013       -46.6770   -30.8160     0.0300 hc         1 RMU       0.084700
     26 H051       -41.9320   -33.0910     0.1630 ha         1 RMU       0.159000
     27 H101       -42.3740   -30.3890     2.3170 hn         1 RMU       0.488000
     28 H221       -41.4630   -33.9930    -3.6520 hn         1 RMU       0.325500
     29 H222       -41.2880   -33.9810    -1.9310 hn         1 RMU       0.325500
     30 C20        -43.0740   -33.2350    -2.6700 c          1 RMU       0.533600
     31 C01        -46.5010   -31.8220     0.4190 c3         1 RMU      -0.161400
@<TRIPOS>BOND
     1     1     2 1   
     2     1     3 ar  
     3     1     6 ar  
     4     2    13 3   
     5     3    12 ar  
     6     3    20 1   
     7     4     5 ar  
     8     4    12 ar  
     9     4    21 1   
    10     5     6 ar  
    11     5    11 1   
    12     6    22 1   
    13     7    10 2   
    14     7    15 1   
    15     7    31 1   
    16     8     9 2   
    17     8    15 1   
    18     8    30 1   
    19     9    10 1   
    20     9    26 1   
    21    10    19 1   
    22    11    19 1   
    23    11    27 1   
    24    14    28 1   
    25    14    29 1   
    26    14    30 1   
    27    16    19 2   
    28    17    19 2   
    29    18    30 2   
    30    23    31 1   
    31    24    31 1   
    32    25    31 1   
@<TRIPOS>SUBSTRUCTURE
     1 RMU         1 TEMP              0 ****  ****    0 ROOT
