@<TRIPOS>MOLECULE
RMV
   50    52     1     0     0
SMALL
abcg2


@<TRIPOS>ATOM
      1 C12         18.2220   -12.9870    43.1140 c3         1 RMV       0.172300
      2 C13         18.9070   -12.4150    44.3460 c3         1 RMV      -0.110100
      3 C18         20.1980   -11.0330    35.4780 ca         1 RMV       0.176300
      4 C20         21.4190   -11.6320    35.7930 ca         1 RMV      -0.231800
      5 C21         21.7560   -12.6690    34.8710 cc         1 RMV      -0.064400
      6 C22         20.8190   -12.8290    33.9110 cd         1 RMV      -0.105600
      7 C23         21.0950   -13.9570    32.9760 c5         1 RMV      -0.003200
      8 C10         19.5250   -12.0190    41.3280 c3         1 RMV       0.155800
      9 C14         17.1110   -12.2440    41.0770 c3         1 RMV       0.172300
     10 C15         17.1270   -13.5020    40.2120 c3         1 RMV      -0.110100
     11 C24         22.5670   -14.2820    33.3260 c5         1 RMV      -0.075400
     12 C25         22.8470   -13.6880    34.7280 c5         1 RMV      -0.017200
     13 C02         22.0660   -11.1030    36.9360 ca         1 RMV       0.445900
     14 N03         21.4940   -10.1090    37.6180 nb         1 RMV      -0.314000
     15 C04         20.3250    -9.6530    37.2060 ca         1 RMV       0.278300
     16 S05         19.5350    -8.3420    38.0870 ss         1 RMV      -0.281300
     17 C06         20.5400    -8.1340    39.5850 c3         1 RMV      -0.069400
     18 C07         19.6970    -8.3540    40.8280 c          1 RMV       0.614100
     19 N08         19.3550    -9.6150    41.1270 ns         1 RMV      -0.496900
     20 C09         19.6610   -10.8250    40.3980 c3         1 RMV       0.102000
     21 N11         18.2340   -12.0640    41.9870 n3         1 RMV      -0.745600
     22 O16         19.3510    -7.4010    41.5140 o          1 RMV      -0.605100
     23 N17         19.6240   -10.0460    36.1600 nb         1 RMV      -0.171000
     24 S19         19.4800   -11.7440    34.0640 ss         1 RMV      -0.070900
     25 H1          17.1800   -13.1940    43.3670 h1         1 RMV       0.042200
     26 H2          18.6710   -13.9580    42.8560 h1         1 RMV       0.042200
     27 H3          18.8480   -13.1230    45.1720 hc         1 RMV       0.037367
     28 H4          19.9630   -12.2010    44.1780 hc         1 RMV       0.037367
     29 H5          18.4220   -11.4890    44.6560 hc         1 RMV       0.037367
     30 H6          20.9690   -13.6940    31.9250 hc         1 RMV       0.057700
     31 H7          20.4280   -14.8000    33.1760 hc         1 RMV       0.057700
     32 H8          19.7490   -12.9300    40.7540 h1         1 RMV       0.039700
     33 H9          20.2990   -11.9410    42.0940 h1         1 RMV       0.039700
     34 H10         17.0390   -11.3670    40.4280 h1         1 RMV       0.042200
     35 H11         16.2000   -12.2330    41.6810 h1         1 RMV       0.042200
     36 H12         16.2080   -13.5600    39.6270 hc         1 RMV       0.037367
     37 H13         17.9620   -13.5060    39.5110 hc         1 RMV       0.037367
     38 H14         17.1910   -14.4100    40.8150 hc         1 RMV       0.037367
     39 H15         22.7690   -15.3510    33.2850 hc         1 RMV       0.047700
     40 H16         23.2210   -13.8000    32.5970 hc         1 RMV       0.047700
     41 H17         22.7710   -14.4470    35.5130 hc         1 RMV       0.048700
     42 H18         23.8520   -13.2660    34.7870 hc         1 RMV       0.048700
     43 H19         23.6890   -11.1220    38.1560 hn         1 RMV       0.501500
     44 H20         23.7580   -12.2590    36.8670 hn         1 RMV       0.501500
     45 H21         21.3900    -8.8140    39.5190 h1         1 RMV       0.105200
     46 H22         20.9200    -7.1150    39.6010 h1         1 RMV       0.105200
     47 H23         18.7350    -9.7440    41.9170 hn         1 RMV       0.338500
     48 H24         20.6840   -10.8040    40.0230 h1         1 RMV       0.049200
     49 H25         19.0090   -10.9350    39.5260 h1         1 RMV       0.049200
     50 N01         23.2360   -11.5680    37.3760 nv         1 RMV      -1.072900
@<TRIPOS>BOND
     1     1     2 1   
     2     1    21 1   
     3     1    25 1   
     4     1    26 1   
     5     2    27 1   
     6     2    28 1   
     7     2    29 1   
     8     3     4 ar  
     9     3    23 ar  
    10     3    24 1   
    11     4     5 1   
    12     4    13 ar  
    13     5     6 2   
    14     5    12 1   
    15     6     7 1   
    16     6    24 1   
    17     7    11 1   
    18     7    30 1   
    19     7    31 1   
    20     8    20 1   
    21     8    21 1   
    22     8    32 1   
    23     8    33 1   
    24     9    10 1   
    25     9    21 1   
    26     9    34 1   
    27     9    35 1   
    28    10    36 1   
    29    10    37 1   
    30    10    38 1   
    31    11    12 1   
    32    11    39 1   
    33    11    40 1   
    34    12    41 1   
    35    12    42 1   
    36    13    14 ar  
    37    13    50 1   
    38    14    15 ar  
    39    15    16 1   
    40    15    23 ar  
    41    16    17 1   
    42    17    18 1   
    43    17    45 1   
    44    17    46 1   
    45    18    19 1   
    46    18    22 2   
    47    19    20 1   
    48    19    47 1   
    49    20    48 1   
    50    20    49 1   
    51    43    50 1   
    52    44    50 1   
@<TRIPOS>SUBSTRUCTURE
     1 RMV         1 TEMP              0 ****  ****    0 ROOT
