@<TRIPOS>MOLECULE
RMV
   50    52     1     0     0
SMALL
No Charge or Current Charge


@<TRIPOS>ATOM
      1 C12         18.4940   -13.5880    41.8280 c3         1 RMV       0.172300
      2 C13         18.0440   -13.1320    43.2300 c3         1 RMV      -0.110100
      3 C18         19.6220   -10.5660    36.5040 ca         1 RMV       0.176300
      4 C20         20.8400   -11.2230    36.4260 ca         1 RMV      -0.231800
      5 C21         20.7200   -12.5460    35.8490 cc         1 RMV      -0.064400
      6 C22         19.4200   -12.8200    35.5400 cd         1 RMV      -0.105600
      7 C23         19.3100   -14.2340    35.0320 c5         1 RMV      -0.003200
      8 C10         20.1220   -11.7400    41.3900 c3         1 RMV       0.155800
      9 C14         18.9690   -12.9090    39.4940 c3         1 RMV       0.172300
     10 C15         20.0820   -13.9220    39.1490 c3         1 RMV      -0.110100
     11 C24         20.7910   -14.6580    34.7120 c5         1 RMV      -0.075400
     12 C25         21.6570   -13.6750    35.5690 c5         1 RMV      -0.017200
     13 C02         21.9700   -10.5490    36.9050 ca         1 RMV       0.445900
     14 N03         21.8800    -9.3140    37.4150 nb         1 RMV      -0.314000
     15 C04         20.6460    -8.7570    37.4430 ca         1 RMV       0.278300
     16 S05         20.5240    -7.1230    38.1420 ss         1 RMV      -0.281300
     17 C06         20.4790    -7.4610    39.9690 c3         1 RMV      -0.069400
     18 C07         19.2100    -8.2250    40.3950 c          1 RMV       0.614100
     19 N08         19.2510    -9.5980    40.4790 ns         1 RMV      -0.496900
     20 C09         20.4410   -10.4480    40.6000 c3         1 RMV       0.102000
     21 N11         18.9110   -12.4850    40.9210 n3         1 RMV      -0.745600
     22 O16         18.1530    -7.6470    40.5960 o          1 RMV      -0.605100
     23 N17         19.4990    -9.3270    37.0100 nb         1 RMV      -0.171000
     24 S19         18.2500   -11.5270    35.8970 ss         1 RMV      -0.070900
     25 H1          17.6490   -14.1260    41.3780 h1         1 RMV       0.042200
     26 H2          19.3090   -14.3160    41.9450 h1         1 RMV       0.042200
     27 H3          17.6140   -13.9780    43.7780 hc         1 RMV       0.037367
     28 H4          18.8850   -12.7480    43.8170 hc         1 RMV       0.037367
     29 H5          17.2800   -12.3490    43.1540 hc         1 RMV       0.037367
     30 H6          18.6690   -14.3110    34.1460 hc         1 RMV       0.057700
     31 H7          18.8720   -14.8890    35.7930 hc         1 RMV       0.057700
     32 H8          21.0050   -12.3920    41.3700 h1         1 RMV       0.039700
     33 H9          19.9850   -11.4330    42.4340 h1         1 RMV       0.039700
     34 H10         19.0910   -12.0330    38.8450 h1         1 RMV       0.042200
     35 H11         18.0070   -13.3590    39.2120 h1         1 RMV       0.042200
     36 H12         19.9840   -14.2410    38.1070 hc         1 RMV       0.037367
     37 H13         21.0750   -13.4760    39.2740 hc         1 RMV       0.037367
     38 H14         20.0160   -14.8180    39.7770 hc         1 RMV       0.037367
     39 H15         20.9890   -15.7100    34.9460 hc         1 RMV       0.047700
     40 H16         21.0030   -14.5190    33.6460 hc         1 RMV       0.047700
     41 H17         21.9900   -14.1430    36.5020 hc         1 RMV       0.048700
     42 H18         22.5510   -13.3490    35.0250 hc         1 RMV       0.048700
     43 H19         24.0000   -10.4540    37.0450 hn         1 RMV       0.501500
     44 H20         23.3860   -11.8960    36.3160 hn         1 RMV       0.501500
     45 H21         21.3780    -8.0090    40.2640 h1         1 RMV       0.105200
     46 H22         20.4770    -6.5060    40.5080 h1         1 RMV       0.105200
     47 H23         18.3640   -10.0470    40.6790 hn         1 RMV       0.338500
     48 H24         21.2390    -9.9120    41.1290 h1         1 RMV       0.049200
     49 H25         20.8000   -10.7070    39.5970 h1         1 RMV       0.049200
     50 N01         23.2150   -11.0820    36.8950 nv         1 RMV      -1.072900
@<TRIPOS>BOND
     1     1     2 1   
     2     1    21 1   
     3     1    25 1   
     4     1    26 1   
     5     2    27 1   
     6     2    28 1   
     7     2    29 1   
     8     3     4 ar  
     9     3    23 ar  
    10     3    24 1   
    11     4     5 1   
    12     4    13 ar  
    13     5     6 2   
    14     5    12 1   
    15     6     7 1   
    16     6    24 1   
    17     7    11 1   
    18     7    30 1   
    19     7    31 1   
    20     8    20 1   
    21     8    21 1   
    22     8    32 1   
    23     8    33 1   
    24     9    10 1   
    25     9    21 1   
    26     9    34 1   
    27     9    35 1   
    28    10    36 1   
    29    10    37 1   
    30    10    38 1   
    31    11    12 1   
    32    11    39 1   
    33    11    40 1   
    34    12    41 1   
    35    12    42 1   
    36    13    14 ar  
    37    13    50 1   
    38    14    15 ar  
    39    15    16 1   
    40    15    23 ar  
    41    16    17 1   
    42    17    18 1   
    43    17    45 1   
    44    17    46 1   
    45    18    19 1   
    46    18    22 2   
    47    19    20 1   
    48    19    47 1   
    49    20    48 1   
    50    20    49 1   
    51    43    50 1   
    52    44    50 1   
@<TRIPOS>SUBSTRUCTURE
     1 RMV         1 TEMP              0 ****  ****    0 ROOT
