@<TRIPOS>MOLECULE
RMX
   69    73     1     0     0
SMALL
abcg2


@<TRIPOS>ATOM
      1 C1        -115.1150    59.2600   -47.9950 cc         1 RMX      -0.439500
      2 C2        -116.3900    59.6270   -47.4910 cc         1 RMX       0.370300
      3 C6        -114.4350    57.6410   -49.9860 c3         1 RMX       0.280100
      4 C5        -115.3540    58.3890   -49.0620 cd         1 RMX      -0.026300
      5 C4        -117.4750    57.5160   -50.0930 c3         1 RMX       0.059900
      6 C3        -116.7280    60.5240   -46.3520 c3         1 RMX      -0.139400
      7 N1        -113.6740    61.4010   -47.4100 n8         1 RMX      -1.020100
      8 C7        -113.9020    55.7840   -48.4500 ca         1 RMX       0.405900
      9 O1        -112.5420    59.2470   -48.2030 o          1 RMX      -0.570000
     10 C8        -113.2050    54.3390   -46.7750 ca         1 RMX       0.476900
     11 C9        -110.8430    54.3020   -46.0500 c3         1 RMX       0.288100
     12 C14       -110.3430    59.9670   -44.8960 cp         1 RMX       0.428500
     13 C13       -110.3830    58.5080   -45.1310 cp         1 RMX      -0.151500
     14 C12       -111.1930    57.6880   -44.3390 ca         1 RMX      -0.066000
     15 C11       -111.3290    56.3370   -44.6200 ca         1 RMX      -0.104500
     16 C10       -110.6560    55.7610   -45.6960 ca         1 RMX      -0.085300
     17 N2        -117.3360    59.0370   -48.2080 nd         1 RMX      -0.537800
     18 O2        -113.5310    59.4400   -45.9330 o          1 RMX      -0.570000
     19 C15       -110.1130    60.8620   -45.9470 ca         1 RMX      -0.178000
     20 C16       -110.1290    62.2250   -45.6970 ca         1 RMX      -0.086000
     21 C17       -110.3760    62.6700   -44.4040 ca         1 RMX      -0.176000
     22 C18       -110.5960    61.7160   -43.4190 ca         1 RMX       0.345900
     23 C19       -109.6760    57.9180   -46.1820 ca         1 RMX      -0.066000
     24 C20       -109.8120    56.5640   -46.4570 ca         1 RMX      -0.104500
     25 C21       -114.5430    53.8990   -46.6670 ca         1 RMX      -0.125600
     26 C22       -116.4380    53.0210   -46.2260 cc         1 RMX       0.394700
     27 C24       -118.0230    53.4430   -49.2240 c3         1 RMX      -0.108100
     28 C25       -119.1360    54.0140   -47.0190 c3         1 RMX      -0.108100
     29 C26       -115.4580    54.4980   -47.5280 ca         1 RMX       0.157500
     30 N10       -115.1940    55.4460   -48.4390 nb         1 RMX      -0.296000
     31 N3        -116.6930    58.2950   -49.1480 na         1 RMX       0.155800
     32 N4        -113.4930    56.7510   -49.3330 nu         1 RMX      -0.888100
     33 N5        -112.9130    55.2750   -47.6840 nb         1 RMX      -0.319000
     34 N6        -112.2230    53.8510   -45.9920 nu         1 RMX      -0.922100
     35 N7        -110.5820    60.4020   -43.6480 nb         1 RMX      -0.664000
     36 N8        -115.1780    52.9730   -45.8570 nd         1 RMX      -0.549100
     37 N9        -116.6740    53.9340   -47.2300 na         1 RMX      -0.292300
     38 S1        -113.5900    59.7580   -47.3420 sy         1 RMX       1.219600
     39 H9        -115.0370    57.0800   -50.6980 h1         1 RMX       0.072700
     40 H10       -113.8450    58.3570   -50.5570 h1         1 RMX       0.072700
     41 H8        -118.5040    57.5280   -49.7470 h1         1 RMX       0.065700
     42 H6        -117.4210    57.9520   -51.0900 h1         1 RMX       0.065700
     43 H7        -117.1070    56.4920   -50.1150 h1         1 RMX       0.065700
     44 H3        -117.8080    60.5540   -46.2150 hc         1 RMX       0.063033
     45 H4        -116.2630    60.1730   -45.4290 hc         1 RMX       0.063033
     46 H5        -116.3630    61.5360   -46.5340 hc         1 RMX       0.063033
     47 H1        -113.0920    61.8210   -46.6910 hn         1 RMX       0.474000
     48 H2        -113.4540    61.7650   -48.3320 hn         1 RMX       0.474000
     49 H13       -110.2840    53.6710   -45.3580 h1         1 RMX       0.055700
     50 H14       -110.4380    54.1270   -47.0490 h1         1 RMX       0.055700
     51 H16       -111.7470    58.1300   -43.5230 ha         1 RMX       0.123000
     52 H15       -111.9970    55.7310   -44.0200 ha         1 RMX       0.112000
     53 H17       -109.9590    60.4950   -46.9510 ha         1 RMX       0.130000
     54 H18       -109.9640    62.9290   -46.5030 ha         1 RMX       0.113000
     55 H19       -110.4020    63.7240   -44.1620 ha         1 RMX       0.122000
     56 H20       -110.7930    62.0220   -42.3970 h4         1 RMX       0.019100
     57 H21       -109.0230    58.5190   -46.8030 ha         1 RMX       0.123000
     58 H22       -109.2770    56.1320   -47.2950 ha         1 RMX       0.112000
     59 H23       -117.2310    52.4270   -45.8030 h5         1 RMX       0.064800
     60 H24       -117.8710    55.3010   -48.1650 h1         1 RMX       0.076700
     61 H27       -118.9250    53.7240   -49.7710 hc         1 RMX       0.048200
     62 H25       -117.1590    53.6400   -49.8590 hc         1 RMX       0.048200
     63 H26       -118.0650    52.3720   -49.0120 hc         1 RMX       0.048200
     64 H29       -119.0350    54.5690   -46.0850 hc         1 RMX       0.048200
     65 H30       -120.0330    54.3610   -47.5310 hc         1 RMX       0.048200
     66 H28       -119.2720    52.9570   -46.7860 hc         1 RMX       0.048200
     67 H11       -112.6220    57.1840   -49.0700 hn         1 RMX       0.520000
     68 H12       -112.4830    53.1770   -45.2910 hn         1 RMX       0.515000
     69 C23       -117.9340    54.2390   -47.9250 c3         1 RMX       0.098300
@<TRIPOS>BOND
     1     1     2 1   
     2     1     4 2   
     3     1    38 1   
     4     2     6 1   
     5     2    17 2   
     6     3     4 1   
     7     3    32 1   
     8     3    39 1   
     9     3    40 1   
    10     4    31 1   
    11     5    31 1   
    12     5    41 1   
    13     5    42 1   
    14     5    43 1   
    15     6    44 1   
    16     6    45 1   
    17     6    46 1   
    18     7    38 1   
    19     7    47 1   
    20     7    48 1   
    21     8    30 ar  
    22     8    32 1   
    23     8    33 ar  
    24     9    38 2   
    25    10    25 ar  
    26    10    33 ar  
    27    10    34 1   
    28    11    16 1   
    29    11    34 1   
    30    11    49 1   
    31    11    50 1   
    32    12    13 1   
    33    12    19 ar  
    34    12    35 ar  
    35    13    14 ar  
    36    13    23 ar  
    37    14    15 ar  
    38    14    51 1   
    39    15    16 ar  
    40    15    52 1   
    41    16    24 ar  
    42    17    31 1   
    43    18    38 2   
    44    19    20 ar  
    45    19    53 1   
    46    20    21 ar  
    47    20    54 1   
    48    21    22 ar  
    49    21    55 1   
    50    22    35 ar  
    51    22    56 1   
    52    23    24 ar  
    53    23    57 1   
    54    24    58 1   
    55    25    29 ar  
    56    25    36 1   
    57    26    36 2   
    58    26    37 1   
    59    26    59 1   
    60    27    61 1   
    61    27    62 1   
    62    27    63 1   
    63    27    69 1   
    64    28    64 1   
    65    28    65 1   
    66    28    66 1   
    67    28    69 1   
    68    29    30 ar  
    69    29    37 1   
    70    32    67 1   
    71    34    68 1   
    72    37    69 1   
    73    60    69 1   
@<TRIPOS>SUBSTRUCTURE
     1 RMX         1 TEMP              0 ****  ****    0 ROOT
