@<TRIPOS>MOLECULE
RMX
   69    73     1     0     0
SMALL
No Charge or Current Charge


@<TRIPOS>ATOM
      1 C1         114.2550    59.6560   -48.5120 cc         1 RMX      -0.439500
      2 C2        -114.8920    60.2110   -47.3890 cc         1 RMX       0.370300
      3 C6         115.0060    57.7810   -50.1920 c3         1 RMX       0.280100
      4 C5        -115.1270    58.7110   -48.9980 cd         1 RMX      -0.026300
      5 C4         117.4560    57.9470   -48.2060 c3         1 RMX       0.059900
      6 C3        -114.3120    61.2990   -46.5310 c3         1 RMX      -0.139400
      7 N1         113.0840    60.8550   -50.5460 n8         1 RMX      -1.020100
      8 C7        -114.0860    55.7210   -49.0320 ca         1 RMX       0.405900
      9 O1         112.0190    58.8490   -49.7080 o          1 RMX      -0.570000
     10 C8        -113.0290    54.3020   -47.5940 ca         1 RMX       0.476900
     11 C9         110.6120    54.6040   -46.8160 c3         1 RMX       0.288100
     12 C14       -111.5610    59.7940   -44.1850 cp         1 RMX       0.428500
     13 C13        111.3000    58.4670   -44.8490 cp         1 RMX      -0.151500
     14 C12       -111.5750    57.2400   -44.1860 ca         1 RMX      -0.066000
     15 C11        111.3440    56.0020   -44.8100 ca         1 RMX      -0.104500
     16 C10       -110.8400    55.9470   -46.1230 ca         1 RMX      -0.085300
     17 N2         116.0770    59.6990   -47.1330 nd         1 RMX      -0.537800
     18 O2        -111.9630    61.0480   -48.3980 o          1 RMX      -0.570000
     19 C15        110.9030    60.9880   -44.5830 ca         1 RMX      -0.178000
     20 C16       -111.2070    62.2040   -43.9520 ca         1 RMX      -0.086000
     21 C17        112.1650    62.1910   -42.9290 ca         1 RMX      -0.176000
     22 C18       -112.7690    60.9740   -42.5750 ca         1 RMX       0.345900
     23 C19        110.7870    58.3880   -46.1710 ca         1 RMX      -0.066000
     24 C20       -110.5630    57.1510   -46.7970 ca         1 RMX      -0.104500
     25 C21        114.2780    53.7300   -47.2810 ca         1 RMX      -0.125600
     26 C22       -115.9230    52.5830   -46.4850 cc         1 RMX       0.394700
     27 C24        118.4750    52.4440   -48.3750 c3         1 RMX      -0.108100
     28 C25       -118.6590    54.3020   -46.6280 c3         1 RMX      -0.108100
     29 C26        115.3910    54.2280   -47.9100 ca         1 RMX       0.157500
     30 N10       -115.3230    55.2350   -48.7990 nb         1 RMX      -0.296000
     31 N3         116.2300    58.7590   -48.1350 na         1 RMX       0.155800
     32 N4        -113.9660    56.7800   -49.9080 nu         1 RMX      -0.888100
     33 N5         112.9320    55.3060   -48.4840 nb         1 RMX      -0.319000
     34 N6        -111.8730    53.8600   -46.9640 nu         1 RMX      -0.922100
     35 N7         112.4710    59.8050   -43.1820 nb         1 RMX      -0.664000
     36 N8        -114.5850    52.6980   -46.3820 nd         1 RMX      -0.549100
     37 N9         116.4320    53.5020   -47.4070 na         1 RMX      -0.292300
     38 S1        -112.6670    60.0550   -49.2000 sy         1 RMX       1.219600
     39 H9         115.9670    57.3010   -50.4210 h1         1 RMX       0.072700
     40 H10       -114.7240    58.3780   -51.0710 h1         1 RMX       0.072700
     41 H8         118.2260    58.3770   -47.5560 h1         1 RMX       0.065700
     42 H6        -117.8300    57.9270   -49.2360 h1         1 RMX       0.065700
     43 H7         117.2370    56.9260   -47.8740 h1         1 RMX       0.065700
     44 H3        -114.9890    61.5620   -45.7110 hc         1 RMX       0.063033
     45 H4         113.3650    60.9780   -46.0870 hc         1 RMX       0.063033
     46 H5        -114.1310    62.2060   -47.1190 hc         1 RMX       0.063033
     47 H1         112.6670    61.7580   -50.3390 hn         1 RMX       0.474000
     48 H2        -112.4160    60.4540   -51.1980 hn         1 RMX       0.474000
     49 H13        109.8940    54.0160   -46.2280 h1         1 RMX       0.055700
     50 H14       -110.1620    54.7730   -47.8040 h1         1 RMX       0.055700
     51 H16        111.9680    57.2430   -43.1720 ha         1 RMX       0.123000
     52 H15       -111.5670    55.0820   -44.2740 ha         1 RMX       0.112000
     53 H17        110.1590    60.9720   -45.3720 ha         1 RMX       0.130000
     54 H18       -110.7130    63.1290   -44.2470 ha         1 RMX       0.113000
     55 H19        112.4370    63.1060   -42.4090 ha         1 RMX       0.122000
     56 H20       -113.5120    60.9330   -41.7790 h4         1 RMX       0.019100
     57 H21        110.5740    59.2920   -46.7340 ha         1 RMX       0.123000
     58 H22       -110.1830    57.1300   -47.8160 ha         1 RMX       0.112000
     59 H23        116.5540    51.8890   -45.9420 h5         1 RMX       0.064800
     60 H24       -117.8480    54.4750   -48.6010 h1         1 RMX       0.076700
     61 H27        119.4940    52.6460   -48.7260 hc         1 RMX       0.048200
     62 H25       -117.8900    52.0730   -49.2250 hc         1 RMX       0.048200
     63 H26        118.5230    51.6530   -47.6170 hc         1 RMX       0.048200
     64 H29       -118.2040    55.2280   -46.2570 hc         1 RMX       0.048200
     65 H30        119.6810    54.5320   -46.9520 hc         1 RMX       0.048200
     66 H28       -118.7140    53.5880   -45.7970 hc         1 RMX       0.048200
     67 H11        113.0200    57.1750   -49.9030 hn         1 RMX       0.520000
     68 H12       -112.0630    53.1290   -46.2770 hn         1 RMX       0.515000
     69 C23        117.8360    53.7250   -47.7990 c3         1 RMX       0.098300
@<TRIPOS>BOND
     1     1     2 1   
     2     1     4 2   
     3     1    38 1   
     4     2     6 1   
     5     2    17 2   
     6     3     4 1   
     7     3    32 1   
     8     3    39 1   
     9     3    40 1   
    10     4    31 1   
    11     5    31 1   
    12     5    41 1   
    13     5    42 1   
    14     5    43 1   
    15     6    44 1   
    16     6    45 1   
    17     6    46 1   
    18     7    38 1   
    19     7    47 1   
    20     7    48 1   
    21     8    30 ar  
    22     8    32 1   
    23     8    33 ar  
    24     9    38 2   
    25    10    25 ar  
    26    10    33 ar  
    27    10    34 1   
    28    11    16 1   
    29    11    34 1   
    30    11    49 1   
    31    11    50 1   
    32    12    13 1   
    33    12    19 ar  
    34    12    35 ar  
    35    13    14 ar  
    36    13    23 ar  
    37    14    15 ar  
    38    14    51 1   
    39    15    16 ar  
    40    15    52 1   
    41    16    24 ar  
    42    17    31 1   
    43    18    38 2   
    44    19    20 ar  
    45    19    53 1   
    46    20    21 ar  
    47    20    54 1   
    48    21    22 ar  
    49    21    55 1   
    50    22    35 ar  
    51    22    56 1   
    52    23    24 ar  
    53    23    57 1   
    54    24    58 1   
    55    25    29 ar  
    56    25    36 1   
    57    26    36 2   
    58    26    37 1   
    59    26    59 1   
    60    27    61 1   
    61    27    62 1   
    62    27    63 1   
    63    27    69 1   
    64    28    64 1   
    65    28    65 1   
    66    28    66 1   
    67    28    69 1   
    68    29    30 ar  
    69    29    37 1   
    70    32    67 1   
    71    34    68 1   
    72    37    69 1   
    73    60    69 1   
@<TRIPOS>SUBSTRUCTURE
     1 RMX         1 TEMP              0 ****  ****    0 ROOT
