@<TRIPOS>MOLECULE
RMY
   66    67     1     0     0
SMALL
bcc


@<TRIPOS>ATOM
      1 C1           3.3070    -0.4400     0.5870 c6         1 RMY       0.209200
      2 C2           2.1030     0.2140     1.2880 c6         1 RMY       0.122100
      3 O1           1.1800    -0.7570     1.7100 oh         1 RMY      -0.580800
      4 C3           1.4260     1.1290     0.2700 c6         1 RMY       0.177100
      5 O2           0.3190     1.7840     0.8610 os         1 RMY      -0.380600
      6 C4           2.4260     2.1320    -0.2900 c6         1 RMY       0.099100
      7 O3           2.8440     3.0060     0.7400 oh         1 RMY      -0.579800
      8 C5           3.5830     1.3630    -0.9050 c6         1 RMY       0.102100
      9 O4           4.1900     0.4980     0.0410 os         1 RMY      -0.387600
     10 C6           4.6470     2.3000    -1.4230 c3         1 RMY       0.140400
     11 O5           5.5760     1.5640    -2.1800 oh         1 RMY      -0.589800
     12 C7           5.9970    -3.4750     1.5720 c3         1 RMY      -0.079100
     13 S1           4.1960    -1.4450     1.7980 ss         1 RMY      -0.356200
     14 C9          -0.8930     2.2990    -1.1930 c          1 RMY       0.900600
     15 C10         -3.4970     0.3080     0.5100 c6         1 RMY       0.072700
     16 C11         -2.3490    -0.2160    -0.3620 c6         1 RMY       0.139100
     17 C12         -3.3850     1.8240     0.6520 c6         1 RMY       0.131100
     18 C13         -0.9220     1.6190     0.2210 c6         1 RMY       0.217600
     19 C14         -0.8990    -3.6880    -1.2400 c3         1 RMY       0.103400
     20 C15         -2.2310    -1.7430    -0.3290 c3         1 RMY       0.133100
     21 C16         -1.3030    -2.2370    -1.4530 c3         1 RMY       0.108100
     22 C17         -1.9890     2.2050     1.1360 c6         1 RMY      -0.108400
     23 C19         -7.0160    -0.9020    -0.2260 c3         1 RMY      -0.183100
     24 O6          -0.2380     1.7130    -2.0650 o          1 RMY      -0.813800
     25 O7          -1.4870     3.3920    -1.2810 o          1 RMY      -0.813800
     26 O8          -4.3920     2.2430     1.5480 oh         1 RMY      -0.605800
     27 O10         -1.8110    -2.1700     0.9430 oh         1 RMY      -0.609800
     28 O11         -1.9040    -2.0330    -2.7130 oh         1 RMY      -0.566800
     29 O12         -1.1150     0.2360     0.1270 os         1 RMY      -0.449600
     30 O13         -5.6660    -1.1000     1.7320 o          1 RMY      -0.606100
     31 H1           2.9180    -1.1100    -0.1960 h2         1 RMY       0.058700
     32 H2           2.4670     0.8020     2.1440 h1         1 RMY       0.068700
     33 H3           1.0990     0.5130    -0.5730 h1         1 RMY       0.100700
     34 H4           1.9370     2.6810    -1.1050 h1         1 RMY       0.088700
     35 HO4          3.2160     3.7950     0.3360 ho         1 RMY       0.387000
     36 H5           3.1830     0.7950    -1.7590 h1         1 RMY       0.070700
     37 H6           4.1460     3.0650    -2.0320 h1         1 RMY       0.027200
     38 H6A          5.1280     2.8130    -0.5820 h1         1 RMY       0.027200
     39 HO6          6.2580     2.1690    -2.4840 ho         1 RMY       0.392000
     40 HAA          6.5740    -4.1440     0.9350 hc         1 RMY       0.038033
     41 HAAA         6.6980    -2.9090     2.1850 hc         1 RMY       0.038033
     42 HAAB         5.3870    -4.0900     2.2350 hc         1 RMY       0.038033
     43 HAB          5.7650    -1.9520     0.0610 h1         1 RMY       0.065200
     44 HABA         4.4480    -3.1320     0.1000 h1         1 RMY       0.065200
     45 HAE         -3.4300    -0.1440     1.5030 h1         1 RMY       0.106700
     46 HAF         -2.5080     0.1110    -1.3980 h1         1 RMY       0.070700
     47 HAG         -3.5470     2.2720    -0.3400 h1         1 RMY       0.059700
     48 HAI         -0.4290    -3.7830    -0.2550 h1         1 RMY       0.023200
     49 HAIA        -1.8030    -4.3180    -1.2220 h1         1 RMY       0.023200
     50 HAJ         -3.2200    -2.1860    -0.4900 h1         1 RMY       0.056700
     51 HAK         -0.3980    -1.6200    -1.4590 h1         1 RMY       0.116700
     52 HAL         -1.8990     3.2930     1.1840 hc         1 RMY       0.060200
     53 HALA        -1.8430     1.8110     2.1470 hc         1 RMY       0.060200
     54 HAN         -7.2830    -1.9590    -0.2310 hc         1 RMY       0.049700
     55 HANA        -7.8360    -0.3640     0.2510 hc         1 RMY       0.049700
     56 HANB        -6.9370    -0.5610    -1.2570 hc         1 RMY       0.049700
     57 HOAQ        -4.4180     3.2040     1.5390 ho         1 RMY       0.398000
     58 HOAR         0.2750    -4.9680    -2.0940 ho         1 RMY       0.388000
     59 HOAS        -1.0370    -1.6430     1.1830 ho         1 RMY       0.441000
     60 HOAT        -2.6510    -2.6350    -2.7970 ho         1 RMY       0.379000
     61 HOAU         1.6560    -1.4050     2.2450 ho         1 RMY       0.402000
     62 N1          -4.7630    -0.0650    -0.0700 ns         1 RMY      -0.558900
     63 C8           5.1410    -2.5590     0.7170 c3         1 RMY       0.022700
     64 C18         -5.7520    -0.7060     0.5810 c          1 RMY       0.675100
     65 HNAO        -4.9510     0.2730    -1.0000 hn         1 RMY       0.305500
     66 O9          -0.0210    -4.0720    -2.2730 oh         1 RMY      -0.588800
@<TRIPOS>BOND
     1     1     2 1   
     2     1     9 1   
     3     1    13 1   
     4     1    31 1   
     5     2     3 1   
     6     2     4 1   
     7     2    32 1   
     8     3    61 1   
     9     4     5 1   
    10     4     6 1   
    11     4    33 1   
    12     5    18 1   
    13     6     7 1   
    14     6     8 1   
    15     6    34 1   
    16     7    35 1   
    17     8     9 1   
    18     8    10 1   
    19     8    36 1   
    20    10    11 1   
    21    10    37 1   
    22    10    38 1   
    23    11    39 1   
    24    12    40 1   
    25    12    41 1   
    26    12    42 1   
    27    12    63 1   
    28    13    63 1   
    29    14    18 1   
    30    14    24 1   
    31    14    25 1   
    32    15    16 1   
    33    15    17 1   
    34    15    45 1   
    35    15    62 1   
    36    16    20 1   
    37    16    29 1   
    38    16    46 1   
    39    17    22 1   
    40    17    26 1   
    41    17    47 1   
    42    18    22 1   
    43    18    29 1   
    44    19    21 1   
    45    19    48 1   
    46    19    49 1   
    47    19    66 1   
    48    20    21 1   
    49    20    27 1   
    50    20    50 1   
    51    21    28 1   
    52    21    51 1   
    53    22    52 1   
    54    22    53 1   
    55    23    54 1   
    56    23    55 1   
    57    23    56 1   
    58    23    64 1   
    59    26    57 1   
    60    27    59 1   
    61    28    60 1   
    62    30    64 2   
    63    43    63 1   
    64    44    63 1   
    65    58    66 1   
    66    62    64 1   
    67    62    65 1   
@<TRIPOS>SUBSTRUCTURE
     1 RMY         1 TEMP              0 ****  ****    0 ROOT
