@<TRIPOS>MOLECULE
RMY
   66    67     1     0     0
SMALL
No Charge or Current Charge


@<TRIPOS>ATOM
      1 C1           3.3150    -0.5010     0.5240 c6         1 RMY       0.280300
      2 C2           2.0040     0.1460     1.0710 c6         1 RMY       0.145300
      3 O1           1.0160    -0.8750     1.3660 oh         1 RMY      -0.703000
      4 C3           1.4950     1.2470     0.0670 c6         1 RMY       0.200300
      5 O2           0.3330     1.9590     0.5900 os         1 RMY      -0.427000
      6 C4           2.6360     2.2630    -0.2590 c6         1 RMY       0.122300
      7 O3           2.8960     3.1030     0.8910 oh         1 RMY      -0.702000
      8 C5           3.9040     1.4790    -0.7280 c6         1 RMY       0.125300
      9 O4           4.3060     0.5130     0.2750 os         1 RMY      -0.434000
     10 C6           5.1150     2.4160    -1.0440 c3         1 RMY       0.163600
     11 O5           6.2640     1.7040    -1.5440 oh         1 RMY      -0.712000
     12 C7           6.2410    -3.4190     1.4600 c3         1 RMY      -0.079100
     13 S1           4.0340    -1.7360     1.6990 ss         1 RMY      -0.452000
     14 C9          -0.9600     2.4140    -1.5800 c          1 RMY       0.690000
     15 C10         -3.5590     0.4390     0.5450 c6         1 RMY       0.072700
     16 C11         -2.4820    -0.2040    -0.3800 c6         1 RMY       0.162300
     17 C12         -3.4360     1.9860     0.4370 c6         1 RMY       0.154300
     18 C13         -0.9370     1.7530    -0.1010 c6         1 RMY       0.264000
     19 C14         -1.5150    -3.9890    -1.2500 c3         1 RMY       0.126600
     20 C15         -2.3500    -1.7570    -0.2040 c3         1 RMY       0.156300
     21 C16         -1.7040    -2.4580    -1.4400 c3         1 RMY       0.131300
     22 C17         -2.0040     2.4340     0.7990 c6         1 RMY      -0.108400
     23 C19         -7.0520    -1.2070     0.2400 c3         1 RMY      -0.183100
     24 O6          -1.3400     1.7060    -2.5060 o          1 RMY      -0.708500
     25 O7          -0.0830     3.2340    -1.8270 o          1 RMY      -0.708500
     26 O8          -4.3780     2.6350     1.3060 oh         1 RMY      -0.668000
     27 O10         -1.5640    -2.0380     0.9740 oh         1 RMY      -0.732000
     28 O11         -2.5200    -2.2690    -2.6100 oh         1 RMY      -0.629000
     29 O12         -1.1590     0.3120    -0.0640 os         1 RMY      -0.496000
     30 O13         -5.2350    -1.6080     1.7740 o          1 RMY      -0.606100
     31 H1           3.0960    -1.0420    -0.4100 h2         1 RMY       0.058700
     32 H2           2.2710     0.6610     2.0060 h1         1 RMY       0.068700
     33 H3           1.2210     0.7440    -0.8730 h1         1 RMY       0.100700
     34 H4           2.3070     2.8870    -1.1030 h1         1 RMY       0.088700
     35 HO4          2.0090     3.3310     1.2550 ho         1 RMY       0.486000
     36 H5           3.6600     0.9390    -1.6550 h1         1 RMY       0.070700
     37 H6           4.7880     3.1600    -1.7830 h1         1 RMY       0.027200
     38 H6A          5.3830     2.9600    -0.1290 h1         1 RMY       0.027200
     39 HO6          6.9950     2.3600    -1.6240 ho         1 RMY       0.491000
     40 HAA          7.1020    -3.7590     0.8730 hc         1 RMY       0.038033
     41 HAAA         6.6070    -3.0510     2.4260 hc         1 RMY       0.038033
     42 HAAB         5.5860    -4.2790     1.6400 hc         1 RMY       0.038033
     43 HAB          6.1600    -1.4630     0.5270 h1         1 RMY       0.065200
     44 HABA         5.1380    -2.6910    -0.2600 h1         1 RMY       0.065200
     45 HAE         -3.3490     0.1440     1.5830 h1         1 RMY       0.106700
     46 HAF         -2.7350     0.0170    -1.4250 h1         1 RMY       0.070700
     47 HAG         -3.6370     2.2750    -0.6070 h1         1 RMY       0.059700
     48 HAI         -0.7840    -4.1680    -0.4500 h1         1 RMY       0.023200
     49 HAIA        -2.4680    -4.4370    -0.9380 h1         1 RMY       0.023200
     50 HAJ         -3.3560    -2.1800    -0.0890 h1         1 RMY       0.056700
     51 HAK         -0.7100    -2.0160    -1.5980 h1         1 RMY       0.116700
     52 HAL         -1.9150     3.5240     0.7050 hc         1 RMY       0.060200
     53 HALA        -1.8020     2.1950     1.8520 hc         1 RMY       0.060200
     54 HAN         -7.6060    -1.9910     0.7680 hc         1 RMY       0.049700
     55 HANA        -7.6010    -0.2580     0.2360 hc         1 RMY       0.049700
     56 HANB        -6.9600    -1.4270    -0.8300 hc         1 RMY       0.049700
     57 HOAQ        -4.3090     3.6000     1.1360 ho         1 RMY       0.437000
     58 HOAR        -0.8930    -5.5400    -2.2930 ho         1 RMY       0.487000
     59 HOAS        -0.8520    -1.3360     0.9720 ho         1 RMY       0.540000
     60 HOAT        -2.2760    -3.0250    -3.1930 ho         1 RMY       0.418000
     61 HOAU         1.4810    -1.5360     1.9310 ho         1 RMY       0.501000
     62 N1          -4.9320     0.0040     0.1880 ns         1 RMY      -0.491900
     63 C8           5.4860    -2.3100     0.7090 c3         1 RMY       0.070600
     64 C18         -5.6620    -0.9750     0.8210 c          1 RMY       0.608100
     65 HNAO        -5.4020     0.4860    -0.5690 hn         1 RMY       0.305500
     66 O9          -1.0590    -4.5860    -2.4790 oh         1 RMY      -0.711000
@<TRIPOS>BOND
     1     1     2 1   
     2     1     9 1   
     3     1    13 1   
     4     1    31 1   
     5     2     3 1   
     6     2     4 1   
     7     2    32 1   
     8     3    61 1   
     9     4     5 1   
    10     4     6 1   
    11     4    33 1   
    12     5    18 1   
    13     6     7 1   
    14     6     8 1   
    15     6    34 1   
    16     7    35 1   
    17     8     9 1   
    18     8    10 1   
    19     8    36 1   
    20    10    11 1   
    21    10    37 1   
    22    10    38 1   
    23    11    39 1   
    24    12    40 1   
    25    12    41 1   
    26    12    42 1   
    27    12    63 1   
    28    13    63 1   
    29    14    18 1   
    30    14    24 1   
    31    14    25 1   
    32    15    16 1   
    33    15    17 1   
    34    15    45 1   
    35    15    62 1   
    36    16    20 1   
    37    16    29 1   
    38    16    46 1   
    39    17    22 1   
    40    17    26 1   
    41    17    47 1   
    42    18    22 1   
    43    18    29 1   
    44    19    21 1   
    45    19    48 1   
    46    19    49 1   
    47    19    66 1   
    48    20    21 1   
    49    20    27 1   
    50    20    50 1   
    51    21    28 1   
    52    21    51 1   
    53    22    52 1   
    54    22    53 1   
    55    23    54 1   
    56    23    55 1   
    57    23    56 1   
    58    23    64 1   
    59    26    57 1   
    60    27    59 1   
    61    28    60 1   
    62    30    64 2   
    63    43    63 1   
    64    44    63 1   
    65    58    66 1   
    66    62    64 1   
    67    62    65 1   
@<TRIPOS>SUBSTRUCTURE
     1 RMY         1 TEMP              0 ****  ****    0 ROOT
