@<TRIPOS>MOLECULE
RMZ
   53    56     1     0     0
SMALL
abcg2


@<TRIPOS>ATOM
      1 C10          4.6510     3.2330   -21.7790 c6         1 RMZ       0.158300
      2 C13          2.7770     1.1200   -21.9330 c6         1 RMZ       0.196300
      3 C15          6.6100     2.8900   -19.4590 c3         1 RMZ      -0.089400
      4 C17          9.1580     2.8330   -19.7240 ca         1 RMZ      -0.082300
      5 C20         11.4710     3.7280   -20.9650 ca         1 RMZ      -0.120000
      6 C21         11.0990     4.2900   -19.7520 ca         1 RMZ      -0.040000
      7 C22          9.9420     3.8240   -19.1510 ca         1 RMZ      -0.162600
      8 C26          0.0180     4.7580   -26.1370 c3         1 RMZ      -0.047800
      9 C01         -2.2770     2.9850   -25.6690 c3         1 RMZ      -0.039800
     10 C02         -1.0000     2.8100   -24.9010 ca         1 RMZ      -0.105300
     11 C03          0.0970     3.6600   -25.1160 ca         1 RMZ      -0.049300
     12 C04          1.2670     3.4700   -24.3970 ca         1 RMZ      -0.144000
     13 C05          1.4070     2.4530   -23.4410 ca         1 RMZ       0.288000
     14 C06          0.3100     1.6170   -23.2330 ca         1 RMZ      -0.169000
     15 C07         -0.8610     1.8000   -23.9610 ca         1 RMZ      -0.080000
     16 C09          3.2010     3.4720   -22.1510 c6         1 RMZ       0.196300
     17 C12          4.2360     0.9140   -21.5730 c6         1 RMZ       0.158300
     18 C16          7.9710     2.5630   -18.8360 c5         1 RMZ       0.161000
     19 C18          9.5390     2.2580   -20.9260 ca         1 RMZ      -0.100000
     20 C19         10.6990     2.7200   -21.5390 ca         1 RMZ      -0.090000
     21 C23          9.3440     4.2220   -17.8570 c          1 RMZ       0.580600
     22 N08          2.6240     2.2890   -22.7730 nh         1 RMZ      -0.786400
     23 N11          4.7820     2.0810   -20.9090 n3         1 RMZ      -0.718600
     24 N25          8.2490     3.4460   -17.7200 ns         1 RMZ      -0.517900
     25 O24          9.7550     5.0620   -17.0730 o          1 RMZ      -0.544000
     26 H102         5.2480     3.1130   -22.7000 h1         1 RMZ       0.039700
     27 H101         5.0200     4.1270   -21.2740 h1         1 RMZ       0.039700
     28 H131         2.1790     1.1910   -21.0110 h1         1 RMZ       0.044700
     29 H132         2.4360     0.2360   -22.4740 h1         1 RMZ       0.044700
     30 H151         6.6590     3.8940   -19.8880 hc         1 RMZ       0.060200
     31 H152         5.8670     2.9180   -18.6580 hc         1 RMZ       0.060200
     32 H201        12.3680     4.0660   -21.4660 ha         1 RMZ       0.119000
     33 H211        11.6970     5.0630   -19.2870 ha         1 RMZ       0.136000
     34 H261        -0.8130     5.4370   -25.9360 hc         1 RMZ       0.041033
     35 H263         0.9320     5.3490   -26.1560 hc         1 RMZ       0.041033
     36 H262        -0.1410     4.3590   -27.1410 hc         1 RMZ       0.041033
     37 H012        -2.1280     2.8540   -26.7430 hc         1 RMZ       0.038367
     38 H011        -3.0290     2.2610   -25.3520 hc         1 RMZ       0.038367
     39 H013        -2.7020     3.9820   -25.5310 hc         1 RMZ       0.038367
     40 H041         2.1060     4.1240   -24.6060 ha         1 RMZ       0.112000
     41 H061         0.3410     0.8230   -22.5000 ha         1 RMZ       0.111000
     42 H071        -1.6950     1.1330   -23.7730 ha         1 RMZ       0.107000
     43 H091         3.1630     4.3170   -22.8360 h1         1 RMZ       0.044700
     44 H092         2.6360     3.7550   -21.2500 h1         1 RMZ       0.044700
     45 H121         4.3060     0.0540   -20.9030 h1         1 RMZ       0.039700
     46 H122         4.7980     0.6610   -22.4880 h1         1 RMZ       0.039700
     47 H141         6.2040     0.8690   -20.0240 h1         1 RMZ       0.032700
     48 H142         6.8360     1.8400   -21.3470 h1         1 RMZ       0.032700
     49 H161         7.9740     1.5200   -18.4990 h1         1 RMZ       0.067700
     50 H181         8.9640     1.4640   -21.3830 ha         1 RMZ       0.118000
     51 H191        11.0090     2.2830   -22.4800 ha         1 RMZ       0.115000
     52 H251         7.6300     3.5150   -16.9280 hn         1 RMZ       0.331500
     53 C14          6.1520     1.8610   -20.4840 c3         1 RMZ       0.171800
@<TRIPOS>BOND
     1     1    16 1   
     2     1    23 1   
     3     1    26 1   
     4     1    27 1   
     5     2    17 1   
     6     2    22 1   
     7     2    28 1   
     8     2    29 1   
     9     3    18 1   
    10     3    30 1   
    11     3    31 1   
    12     3    53 1   
    13     4     7 ar  
    14     4    18 1   
    15     4    19 ar  
    16     5     6 ar  
    17     5    20 ar  
    18     5    32 1   
    19     6     7 ar  
    20     6    33 1   
    21     7    21 1   
    22     8    11 1   
    23     8    34 1   
    24     8    35 1   
    25     8    36 1   
    26     9    10 1   
    27     9    37 1   
    28     9    38 1   
    29     9    39 1   
    30    10    11 ar  
    31    10    15 ar  
    32    11    12 ar  
    33    12    13 ar  
    34    12    40 1   
    35    13    14 ar  
    36    13    22 1   
    37    14    15 ar  
    38    14    41 1   
    39    15    42 1   
    40    16    22 1   
    41    16    43 1   
    42    16    44 1   
    43    17    23 1   
    44    17    45 1   
    45    17    46 1   
    46    18    24 1   
    47    18    49 1   
    48    19    20 ar  
    49    19    50 1   
    50    20    51 1   
    51    21    24 1   
    52    21    25 2   
    53    23    53 1   
    54    24    52 1   
    55    47    53 1   
    56    48    53 1   
@<TRIPOS>SUBSTRUCTURE
     1 RMZ         1 TEMP              0 ****  ****    0 ROOT
