@<TRIPOS>MOLECULE
RMZ
   53    56     1     0     0
SMALL
No Charge or Current Charge


@<TRIPOS>ATOM
      1 C10          4.4390     3.3730   -21.4490 c6         1 RMZ       0.158300
      2 C13          2.8400     1.0070   -22.0710 c6         1 RMZ       0.196300
      3 C15          6.6840     2.9550   -19.3560 c3         1 RMZ      -0.089400
      4 C17          9.2370     2.8100   -19.6690 ca         1 RMZ      -0.082300
      5 C20         11.5630     3.4990   -21.0680 ca         1 RMZ      -0.120000
      6 C21         11.2290     4.1970   -19.8900 ca         1 RMZ      -0.040000
      7 C22         10.0600     3.8220   -19.2120 ca         1 RMZ      -0.162600
      8 C26         -0.0080     4.8210   -26.1880 c3         1 RMZ      -0.047800
      9 C01         -2.3070     2.9210   -25.8850 c3         1 RMZ      -0.039800
     10 C02         -1.0460     2.7800   -25.0370 ca         1 RMZ      -0.105300
     11 C03          0.0380     3.6770   -25.1790 ca         1 RMZ      -0.049300
     12 C04          1.1840     3.5120   -24.3750 ca         1 RMZ      -0.144000
     13 C05          1.2730     2.4710   -23.4330 ca         1 RMZ       0.288000
     14 C06          0.1890     1.5820   -23.3040 ca         1 RMZ      -0.169000
     15 C07         -0.9590     1.7360   -24.0970 ca         1 RMZ      -0.080000
     16 C09          2.9220     3.4840   -21.8140 c6         1 RMZ       0.196300
     17 C12          4.3590     0.9460   -21.7050 c6         1 RMZ       0.158300
     18 C16          8.0610     2.6480   -18.7200 c5         1 RMZ       0.161000
     19 C18          9.5710     2.0890   -20.8280 ca         1 RMZ      -0.100000
     20 C19         10.7410     2.4460   -21.5310 ca         1 RMZ      -0.090000
     21 C23          9.5030     4.3510   -17.9470 c          1 RMZ       0.580600
     22 N08          2.4390     2.3320   -22.6420 nh         1 RMZ      -0.786400
     23 N11          4.7950     2.0640   -20.8120 n3         1 RMZ      -0.718600
     24 N25          8.3670     3.6270   -17.6580 ns         1 RMZ      -0.517900
     25 O24          9.9570     5.2540   -17.2620 o          1 RMZ      -0.544000
     26 H102         5.0280     3.5160   -22.3660 h1         1 RMZ       0.039700
     27 H101         4.6820     4.2100   -20.7790 h1         1 RMZ       0.039700
     28 H131         2.2530     0.8010   -21.1640 h1         1 RMZ       0.044700
     29 H132         2.6280     0.2030   -22.7900 h1         1 RMZ       0.044700
     30 H151         6.7030     3.9630   -19.7870 hc         1 RMZ       0.060200
     31 H152         5.9270     2.9680   -18.5630 hc         1 RMZ       0.060200
     32 H201        12.4640     3.7640   -21.6170 ha         1 RMZ       0.119000
     33 H211        11.8640     4.9980   -19.5140 ha         1 RMZ       0.136000
     34 H261        -0.8440     5.4980   -25.9790 hc         1 RMZ       0.041033
     35 H263         0.9100     5.4200   -26.1680 hc         1 RMZ       0.041033
     36 H262        -0.1280     4.4410   -27.2090 hc         1 RMZ       0.041033
     37 H012        -2.0760     2.8360   -26.9540 hc         1 RMZ       0.038367
     38 H011        -3.0460     2.1460   -25.6490 hc         1 RMZ       0.038367
     39 H013        -2.7880     3.8920   -25.7190 hc         1 RMZ       0.038367
     40 H041         2.0220     4.1920   -24.4920 ha         1 RMZ       0.112000
     41 H061         0.2220     0.7740   -22.5800 ha         1 RMZ       0.111000
     42 H071        -1.7860     1.0390   -23.9760 ha         1 RMZ       0.107000
     43 H091         2.7650     4.4370   -22.3400 h1         1 RMZ       0.044700
     44 H092         2.3400     3.5320   -20.8820 h1         1 RMZ       0.044700
     45 H121         4.5600    -0.0240   -21.2260 h1         1 RMZ       0.039700
     46 H122         4.9400     0.9650   -22.6400 h1         1 RMZ       0.039700
     47 H141         6.4100     0.9380   -20.0460 h1         1 RMZ       0.032700
     48 H142         6.8500     2.0740   -21.3280 h1         1 RMZ       0.032700
     49 H161         8.0410     1.6260   -18.3160 h1         1 RMZ       0.067700
     50 H181         8.9520     1.2660   -21.1770 ha         1 RMZ       0.118000
     51 H191        11.0150     1.9030   -22.4340 ha         1 RMZ       0.115000
     52 H251         7.8210     3.8350   -16.8310 hn         1 RMZ       0.331500
     53 C14          6.2240     1.9490   -20.4340 c3         1 RMZ       0.171800
@<TRIPOS>BOND
     1     1    16 1   
     2     1    23 1   
     3     1    26 1   
     4     1    27 1   
     5     2    17 1   
     6     2    22 1   
     7     2    28 1   
     8     2    29 1   
     9     3    18 1   
    10     3    30 1   
    11     3    31 1   
    12     3    53 1   
    13     4     7 ar  
    14     4    18 1   
    15     4    19 ar  
    16     5     6 ar  
    17     5    20 ar  
    18     5    32 1   
    19     6     7 ar  
    20     6    33 1   
    21     7    21 1   
    22     8    11 1   
    23     8    34 1   
    24     8    35 1   
    25     8    36 1   
    26     9    10 1   
    27     9    37 1   
    28     9    38 1   
    29     9    39 1   
    30    10    11 ar  
    31    10    15 ar  
    32    11    12 ar  
    33    12    13 ar  
    34    12    40 1   
    35    13    14 ar  
    36    13    22 1   
    37    14    15 ar  
    38    14    41 1   
    39    15    42 1   
    40    16    22 1   
    41    16    43 1   
    42    16    44 1   
    43    17    23 1   
    44    17    45 1   
    45    17    46 1   
    46    18    24 1   
    47    18    49 1   
    48    19    20 ar  
    49    19    50 1   
    50    20    51 1   
    51    21    24 1   
    52    21    25 2   
    53    23    53 1   
    54    24    52 1   
    55    47    53 1   
    56    48    53 1   
@<TRIPOS>SUBSTRUCTURE
     1 RMZ         1 TEMP              0 ****  ****    0 ROOT
