@<TRIPOS>MOLECULE
RN0
   41    43     1     0     0
SMALL
abcg2


@<TRIPOS>ATOM
      1 N1          15.2400   -11.8020     4.8720 ns         1 RN0      -0.170000
      2 C4          14.0970   -11.2700     8.3790 ca         1 RN0      -0.092000
      3 C5          13.3380   -10.1010     8.1430 ca         1 RN0       0.356900
      4 C6          13.8460   -10.1140     5.9110 ca         1 RN0       0.340900
      5 C7          14.6170   -11.2480     6.0100 ca         1 RN0      -0.079000
      6 C8          16.0380   -11.1150     4.0040 c          1 RN0       0.597100
      7 C10         16.9740   -11.2160     1.6630 ca         1 RN0      -0.066300
      8 C13         17.5370    -9.7370    -0.6540 ca         1 RN0      -0.094000
      9 C15         15.9440   -10.8470     0.7980 ca         1 RN0      -0.090000
     10 C17         15.5730   -13.0110     7.5040 ca         1 RN0      -0.125000
     11 C14         16.2370   -10.1150    -0.3420 ca         1 RN0       0.127000
     12 C12         18.5590   -10.1110     0.2100 ca         1 RN0      -0.099000
     13 C11         18.2820   -10.8430     1.3600 ca         1 RN0      -0.089000
     14 C9          16.6560   -11.9870     2.9140 c3         1 RN0      -0.108100
     15 O3          16.2670    -9.9190     4.1050 o          1 RN0      -0.557100
     16 N           13.2180    -9.5370     6.9630 nb         1 RN0      -0.640000
     17 C16         14.7750   -11.8660     7.2790 ca         1 RN0      -0.015000
     18 C3          14.2090   -11.8430     9.6670 ca         1 RN0      -0.056000
     19 C2          14.9800   -12.9570     9.8680 ca         1 RN0      -0.107000
     20 C1          15.6610   -13.5170     8.7710 ca         1 RN0       0.141100
     21 O2          16.4170   -14.6780     8.9800 os         1 RN0      -0.461800
     22 S           17.9340   -14.5730     9.5410 s6         1 RN0       1.354700
     23 O           18.2510   -15.9250     9.9000 o          1 RN0      -0.526000
     24 O1          18.0000   -13.5390    10.5370 o          1 RN0      -0.526000
     25 C           18.8520   -14.0890     8.1120 c3         1 RN0      -0.387100
     26 H1          15.1580   -12.7980     4.7350 hn         1 RN0       0.155000
     27 H2          12.8210    -9.6340     8.9770 h4         1 RN0       0.027100
     28 H3          13.7140    -9.6370     4.9490 h4         1 RN0       0.041100
     29 H4          17.7420    -9.1680    -1.5500 ha         1 RN0       0.132000
     30 H5          14.9210   -11.1270     1.0150 ha         1 RN0       0.127000
     31 H6          16.1150   -13.4830     6.6980 ha         1 RN0       0.124000
     32 H7          19.5790    -9.8280    -0.0190 ha         1 RN0       0.121000
     33 H8          19.0860   -11.1280     2.0260 ha         1 RN0       0.116000
     34 H9          15.9870   -12.8210     2.6930 hc         1 RN0       0.066200
     35 H10         17.5700   -12.4140     3.3360 hc         1 RN0       0.066200
     36 H11         13.6790   -11.3860    10.4930 ha         1 RN0       0.131000
     37 H12         15.0800   -13.4110    10.8430 ha         1 RN0       0.145000
     38 H13         19.8970   -14.0560     8.4180 h1         1 RN0       0.108700
     39 H14         18.6940   -14.8350     7.3360 h1         1 RN0       0.108700
     40 H15         18.5160   -13.1040     7.7970 h1         1 RN0       0.108700
     41 CL          14.9300    -9.6550    -1.4180 cl         1 RN0      -0.210000
@<TRIPOS>BOND
     1     1     5 1   
     2     1     6 1   
     3     1    26 1   
     4     2     3 ar  
     5     2    17 ar  
     6     2    18 ar  
     7     3    16 ar  
     8     3    27 1   
     9     4     5 ar  
    10     4    16 ar  
    11     4    28 1   
    12     5    17 ar  
    13     6    14 1   
    14     6    15 2   
    15     7     9 ar  
    16     7    13 ar  
    17     7    14 1   
    18     8    11 ar  
    19     8    12 ar  
    20     8    29 1   
    21     9    11 ar  
    22     9    30 1   
    23    10    17 ar  
    24    10    20 ar  
    25    10    31 1   
    26    11    41 1   
    27    12    13 ar  
    28    12    32 1   
    29    13    33 1   
    30    14    34 1   
    31    14    35 1   
    32    18    19 ar  
    33    18    36 1   
    34    19    20 ar  
    35    19    37 1   
    36    20    21 1   
    37    21    22 1   
    38    22    23 2   
    39    22    24 2   
    40    22    25 1   
    41    25    38 1   
    42    25    39 1   
    43    25    40 1   
@<TRIPOS>SUBSTRUCTURE
     1 RN0         1 TEMP              0 ****  ****    0 ROOT
