@<TRIPOS>MOLECULE
RN0
   41    43     1     0     0
SMALL
No Charge or Current Charge


@<TRIPOS>ATOM
      1 N1          16.5420   -10.7070     5.2550 ns         1 RN0      -0.170000
      2 C4          14.2440   -11.0570     8.1850 ca         1 RN0      -0.092000
      3 C5          13.7660    -9.7350     8.2540 ca         1 RN0       0.356900
      4 C6          15.0540    -9.0910     6.4400 ca         1 RN0       0.340900
      5 C7          15.6040   -10.3900     6.2850 ca         1 RN0      -0.079000
      6 C8          17.2520    -9.9090     4.3660 c          1 RN0       0.597100
      7 C10         17.4380   -10.7810     2.0140 ca         1 RN0      -0.066300
      8 C13         16.1600   -10.9450    -0.4950 ca         1 RN0      -0.094000
      9 C15         16.5850   -11.8640     1.7200 ca         1 RN0      -0.090000
     10 C17         15.6590   -12.7280     7.1160 ca         1 RN0      -0.125000
     11 C14         15.9500   -11.9440     0.4690 ca         1 RN0       0.127000
     12 C12         17.0080    -9.8620    -0.2070 ca         1 RN0      -0.099000
     13 C11         17.6450    -9.7810     1.0440 ca         1 RN0      -0.089000
     14 C9          18.1240   -10.6880     3.3740 c3         1 RN0      -0.108100
     15 O3          17.1980    -8.6850     4.3530 o          1 RN0      -0.557100
     16 N           14.1580    -8.7650     7.4000 nb         1 RN0      -0.640000
     17 C16         15.1800   -11.3990     7.1840 ca         1 RN0      -0.015000
     18 C3          13.7880   -12.0280     9.0980 ca         1 RN0      -0.056000
     19 C2          14.2710   -13.3440     9.0220 ca         1 RN0      -0.107000
     20 C1          15.2170   -13.6880     8.0420 ca         1 RN0       0.141100
     21 O2          15.6770   -14.9750     7.9460 os         1 RN0      -0.461800
     22 S           16.8460   -15.4890     8.9900 s6         1 RN0       1.354700
     23 O           16.8000   -16.9550     9.0760 o          1 RN0      -0.526000
     24 O1          16.8350   -14.6610    10.2030 o          1 RN0      -0.526000
     25 C           18.2460   -15.0180     7.9830 c3         1 RN0      -0.387100
     26 H1          16.7110   -11.6980     5.1430 hn         1 RN0       0.155000
     27 H2          13.0430    -9.4430     9.0140 h4         1 RN0       0.027100
     28 H3          15.3170    -8.2740     5.7720 h4         1 RN0       0.041100
     29 H4          15.6660   -11.0100    -1.4610 ha         1 RN0       0.132000
     30 H5          16.4120   -12.6450     2.4560 ha         1 RN0       0.127000
     31 H6          16.3730   -13.0330     6.3570 ha         1 RN0       0.124000
     32 H7          17.1720    -9.0860    -0.9520 ha         1 RN0       0.121000
     33 H8          18.2970    -8.9370     1.2600 ha         1 RN0       0.116000
     34 H9          18.3020   -11.7020     3.7530 hc         1 RN0       0.066200
     35 H10         19.0830   -10.1690     3.2670 hc         1 RN0       0.066200
     36 H11         13.0600   -11.7650     9.8640 ha         1 RN0       0.131000
     37 H12         13.9120   -14.0950     9.7210 ha         1 RN0       0.145000
     38 H13         19.1480   -15.3420     8.5120 h1         1 RN0       0.108700
     39 H14         18.1410   -15.5270     7.0200 h1         1 RN0       0.108700
     40 H15         18.2200   -13.9300     7.8710 h1         1 RN0       0.108700
     41 Cl          14.8870   -13.2990     0.1110 cl         1 RN0      -0.210000
@<TRIPOS>BOND
     1     1     5 1   
     2     1     6 1   
     3     1    26 1   
     4     2     3 ar  
     5     2    17 ar  
     6     2    18 ar  
     7     3    16 ar  
     8     3    27 1   
     9     4     5 ar  
    10     4    16 ar  
    11     4    28 1   
    12     5    17 ar  
    13     6    14 1   
    14     6    15 2   
    15     7     9 ar  
    16     7    13 ar  
    17     7    14 1   
    18     8    11 ar  
    19     8    12 ar  
    20     8    29 1   
    21     9    11 ar  
    22     9    30 1   
    23    10    17 ar  
    24    10    20 ar  
    25    10    31 1   
    26    11    41 1   
    27    12    13 ar  
    28    12    32 1   
    29    13    33 1   
    30    14    34 1   
    31    14    35 1   
    32    18    19 ar  
    33    18    36 1   
    34    19    20 ar  
    35    19    37 1   
    36    20    21 1   
    37    21    22 1   
    38    22    23 2   
    39    22    24 2   
    40    22    25 1   
    41    25    38 1   
    42    25    39 1   
    43    25    40 1   
@<TRIPOS>SUBSTRUCTURE
     1 RN0         1 TEMP              0 ****  ****    0 ROOT
