@<TRIPOS>MOLECULE
RN1
   30    31     1     0     0
SMALL
bcc


@<TRIPOS>ATOM
      1 C01          2.7400     2.2840    -0.1720 ca         1 RN1      -0.143000
      2 C02          3.9860     1.6390    -0.0510 ca         1 RN1      -0.111000
      3 C03          4.0450     0.2780     0.0690 ca         1 RN1      -0.132000
      4 C04          2.8670    -0.5050     0.0690 ca         1 RN1      -0.006000
      5 C05          1.6130     0.1480    -0.0540 ca         1 RN1      -0.057000
      6 C06          1.5790     1.5560    -0.1730 ca         1 RN1      -0.088000
      7 C07          2.9160    -1.9150     0.1910 ca         1 RN1      -0.156000
      8 C08          1.7590    -2.6390     0.1840 ca         1 RN1      -0.086000
      9 C09          0.5020    -2.0100     0.0610 ca         1 RN1      -0.240000
     10 C10          0.4240    -0.6440    -0.0530 ca         1 RN1       0.161100
     11 O11         -0.7200     0.0480    -0.1700 os         1 RN1      -0.305900
     12 C12         -1.9480    -0.6490    -0.1350 c3         1 RN1       0.103400
     13 C13         -3.0720     0.3740    -0.1610 c3         1 RN1       0.143100
     14 C14         -4.4070    -0.3490    -0.2540 c3         1 RN1       0.106400
     15 O15         -3.0070     1.2560     0.9320 oh         1 RN1      -0.560800
     16 O16         -5.4320     0.6070    -0.3670 oh         1 RN1      -0.577800
     17 H1           2.7000     3.3610    -0.2640 ha         1 RN1       0.132000
     18 H2           4.8950     2.2260    -0.0520 ha         1 RN1       0.130000
     19 H3           5.0020    -0.2220     0.1670 ha         1 RN1       0.131000
     20 H4           0.6300     2.0680    -0.2650 ha         1 RN1       0.149000
     21 H5           3.8760    -2.4070     0.2880 ha         1 RN1       0.133000
     22 H6           1.7920    -3.7170     0.2730 ha         1 RN1       0.128000
     23 H7          -0.3850    -2.6290     0.0580 ha         1 RN1       0.130000
     24 H8          -2.0330    -1.3230    -0.9950 h1         1 RN1       0.037700
     25 H9          -2.0180    -1.2620     0.7730 h1         1 RN1       0.037700
     26 H10         -2.9540     0.9970    -1.0540 h1         1 RN1       0.100700
     27 H11         -4.3820    -1.0230    -1.1200 h1         1 RN1       0.019700
     28 H12         -4.5380    -0.9830     0.6360 h1         1 RN1       0.019700
     29 H13         -3.1510     0.7540     1.7420 ho         1 RN1       0.397000
     30 H14         -6.2730     0.1410    -0.3810 ho         1 RN1       0.406000
@<TRIPOS>BOND
     1     1     2 ar  
     2     1     6 ar  
     3     1    17 1   
     4     2     3 ar  
     5     2    18 1   
     6     3     4 ar  
     7     3    19 1   
     8     4     5 ar  
     9     4     7 ar  
    10     5     6 ar  
    11     5    10 ar  
    12     6    20 1   
    13     7     8 ar  
    14     7    21 1   
    15     8     9 ar  
    16     8    22 1   
    17     9    10 ar  
    18     9    23 1   
    19    10    11 1   
    20    11    12 1   
    21    12    13 1   
    22    12    24 1   
    23    12    25 1   
    24    13    14 1   
    25    13    15 1   
    26    13    26 1   
    27    14    16 1   
    28    14    27 1   
    29    14    28 1   
    30    15    29 1   
    31    16    30 1   
@<TRIPOS>SUBSTRUCTURE
     1 RN1         1 TEMP              0 ****  ****    0 ROOT
