@<TRIPOS>MOLECULE
RN1
   30    31     1     0     0
SMALL
No Charge or Current Charge


@<TRIPOS>ATOM
      1 C01          2.8310     2.3030    -0.1250 ca         1 RN1      -0.125000
      2 C02          4.0790     1.6620    -0.0810 ca         1 RN1      -0.093000
      3 C03          4.1450     0.2610    -0.0110 ca         1 RN1      -0.114000
      4 C04          2.9630    -0.5040     0.0170 ca         1 RN1      -0.006000
      5 C05          1.7010     0.1360    -0.0270 ca         1 RN1      -0.057000
      6 C06          1.6470     1.5470    -0.0980 ca         1 RN1      -0.070000
      7 C07          3.0400    -1.9060     0.0880 ca         1 RN1      -0.138000
      8 C08          1.8690    -2.6770     0.1160 ca         1 RN1      -0.068000
      9 C09          0.6120    -2.0510     0.0730 ca         1 RN1      -0.222000
     10 C10          0.5180    -0.6420     0.0010 ca         1 RN1       0.161100
     11 O11         -0.7070    -0.0000    -0.0440 os         1 RN1      -0.329100
     12 C12         -1.9590    -0.7140    -0.0120 c3         1 RN1       0.126600
     13 C13         -3.1220     0.3090    -0.0830 c3         1 RN1       0.166300
     14 C14         -4.4990    -0.3890    -0.2240 c3         1 RN1       0.129600
     15 O15         -3.1470     1.1400     1.0950 oh         1 RN1      -0.623000
     16 O16         -5.5540     0.5880    -0.2270 oh         1 RN1      -0.640000
     17 H1           2.7800     3.3890    -0.1790 ha         1 RN1       0.114000
     18 H2           4.9950     2.2490    -0.1020 ha         1 RN1       0.112000
     19 H3           5.1150    -0.2290     0.0230 ha         1 RN1       0.113000
     20 H4           0.6910     2.0640    -0.1310 ha         1 RN1       0.131000
     21 H5           4.0080    -2.4010     0.1220 ha         1 RN1       0.115000
     22 H6           1.9350    -3.7620     0.1710 ha         1 RN1       0.110000
     23 H7          -0.2750    -2.6770     0.0960 ha         1 RN1       0.112000
     24 H8          -2.0290    -1.3950    -0.8700 h1         1 RN1       0.037700
     25 H9          -2.0480    -1.3050     0.9090 h1         1 RN1       0.037700
     26 H10         -2.9700     0.9260    -0.9810 h1         1 RN1       0.100700
     27 H11         -4.5140    -0.9650    -1.1590 h1         1 RN1       0.019700
     28 H12         -4.6370    -1.0950     0.6060 h1         1 RN1       0.019700
     29 H13         -4.0640     1.4950     1.1290 ho         1 RN1       0.436000
     30 H14         -6.3980     0.1030    -0.3690 ho         1 RN1       0.445000
@<TRIPOS>BOND
     1     1     2 ar  
     2     1     6 ar  
     3     1    17 1   
     4     2     3 ar  
     5     2    18 1   
     6     3     4 ar  
     7     3    19 1   
     8     4     5 ar  
     9     4     7 ar  
    10     5     6 ar  
    11     5    10 ar  
    12     6    20 1   
    13     7     8 ar  
    14     7    21 1   
    15     8     9 ar  
    16     8    22 1   
    17     9    10 ar  
    18     9    23 1   
    19    10    11 1   
    20    11    12 1   
    21    12    13 1   
    22    12    24 1   
    23    12    25 1   
    24    13    14 1   
    25    13    15 1   
    26    13    26 1   
    27    14    16 1   
    28    14    27 1   
    29    14    28 1   
    30    15    29 1   
    31    16    30 1   
@<TRIPOS>SUBSTRUCTURE
     1 RN1         1 TEMP              0 ****  ****    0 ROOT
