@<TRIPOS>MOLECULE
RN3
  107   113     1     0     0
SMALL
No Charge or Current Charge


@<TRIPOS>ATOM
      1 N           73.6280    34.1940    57.7880 nc         1 RN3      -0.345000
      2 C           72.5730    36.1840    58.8570 c3         1 RN3      -0.131400
      3 O           71.5960    30.9540    52.8490 os         1 RN3      -0.461100
      4 C1          72.7610    35.1980    57.7360 cd         1 RN3       0.418800
      5 C10         71.7470    39.5950    52.7850 ca         1 RN3      -0.110000
      6 C11         72.5640    39.5460    51.6460 ca         1 RN3       0.135000
      7 C12         73.0420    38.3130    51.1810 ca         1 RN3      -0.110000
      8 C13         72.7000    37.1250    51.8520 ca         1 RN3      -0.068500
      9 C14         70.6040    35.9500    54.8800 cc         1 RN3      -0.230900
     10 C15         70.9700    35.7560    56.1870 cd         1 RN3      -0.119200
     11 C16         68.5710    36.2540    56.0450 cd         1 RN3      -0.300600
     12 C17         67.1670    36.5970    56.3890 c          1 RN3       0.632700
     13 C18         64.9900    37.4540    55.4610 c3         1 RN3       0.111000
     14 C19         64.9310    38.9320    55.9050 c3         1 RN3      -0.098400
     15 C2          72.7240    34.1770    55.7800 cd         1 RN3       0.393800
     16 C20         65.6510    39.9060    54.9380 c3         1 RN3      -0.076400
     17 C21         65.6290    41.3850    55.3880 c3         1 RN3      -0.073400
     18 C22         64.2210    42.0300    55.3960 c3         1 RN3      -0.077400
     19 C23         64.2280    43.5550    55.6500 c3         1 RN3      -0.078400
     20 C24         64.6880    43.9680    57.0710 c3         1 RN3      -0.100400
     21 C25         64.6600    45.4910    57.3300 c3         1 RN3       0.100000
     22 C26         65.4480    46.7820    55.3050 c          1 RN3       0.567100
     23 C27         66.7130    47.3560    54.6230 c3         1 RN3       0.080600
     24 C28         66.4590    46.3360    52.3780 ca         1 RN3       0.207100
     25 C29         66.7080    45.0170    52.8390 ca         1 RN3      -0.188000
     26 C3          72.2290    33.6770    54.4160 c3         1 RN3       0.107200
     27 C30         66.5720    43.9090    51.9690 ca         1 RN3      -0.056000
     28 C31         66.1920    44.0940    50.6240 ca         1 RN3      -0.084000
     29 C32         65.9590    45.4040    50.1830 ca         1 RN3      -0.097600
     30 C33         65.5550    45.9040    48.8390 c          1 RN3       0.591600
     31 C34         65.1160    48.2030    47.8440 c6         1 RN3       0.044700
     32 C35         63.6020    48.5360    47.8410 c6         1 RN3      -0.084400
     33 C36         63.2510    49.5750    46.7490 c6         1 RN3      -0.158400
     34 C37         64.1810    50.7930    46.7430 c          1 RN3       0.577000
     35 C38         66.0270    49.4570    47.6900 c          1 RN3       0.571000
     36 C39         66.0920    46.4930    51.0360 ca         1 RN3      -0.175600
     37 C4          73.1060    32.5500    53.8110 c3         1 RN3      -0.111400
     38 C40         65.7720    47.7270    50.2670 c          1 RN3       0.601600
     39 C41         69.1930    36.2190    54.7930 cc         1 RN3      -0.015300
     40 C42         68.5530    36.4340    53.4330 c3         1 RN3      -0.048800
     41 C5          72.4780    31.9610    52.5490 c          1 RN3       0.602100
     42 C6          70.9130    30.3050    51.7590 c3         1 RN3       0.153900
     43 C7          71.5090    35.8860    53.7210 ce         1 RN3       0.553500
     44 C8          71.8650    37.1550    52.9950 ca         1 RN3      -0.140900
     45 C9          71.4020    38.4110    53.4580 ca         1 RN3      -0.068500
     46 N1          73.5820    33.5300    56.5650 nc         1 RN3      -0.330000
     47 N2          72.1200    34.7760    53.4330 n2         1 RN3      -0.571900
     48 N3          66.3630    36.9600    55.3380 ns         1 RN3      -0.496900
     49 N4          65.6690    46.2100    56.5440 ns         1 RN3      -0.508900
     50 N5          65.4610    47.2900    48.9730 n          1 RN3      -0.393400
     51 N6          65.4490    50.6010    47.2090 ns         1 RN3      -0.477500
     52 N7          72.2640    35.2820    56.4590 na         1 RN3      -0.276800
     53 O1          72.7270    32.3450    51.4140 o          1 RN3      -0.470000
     54 O2          66.5710    47.4520    53.1850 os         1 RN3      -0.298100
     55 O3          67.2220    49.4310    47.9400 o          1 RN3      -0.504000
     56 O4          63.8050    51.8960    46.3840 o          1 RN3      -0.514000
     57 O5          65.3500    45.2480    47.8270 o          1 RN3      -0.490000
     58 O6          65.7510    48.8800    50.6710 o          1 RN3      -0.460000
     59 O7          64.3380    46.7970    54.7880 o          1 RN3      -0.570100
     60 O8          66.7480    36.5750    57.5360 o          1 RN3      -0.609100
     61 S           69.6740    35.8570    57.3720 ss         1 RN3       0.357000
     62 H1          73.5120    36.3400    59.4000 hc         1 RN3       0.068033
     63 H2          72.2450    37.1580    58.4770 hc         1 RN3       0.068033
     64 H3          71.8270    35.8230    59.5740 hc         1 RN3       0.068033
     65 H4          71.3830    40.5530    53.1480 ha         1 RN3       0.134500
     66 H5          73.6790    38.2760    50.3010 ha         1 RN3       0.134500
     67 H6          73.0830    36.1800    51.4700 ha         1 RN3       0.130000
     68 H7          64.4930    37.3460    54.4880 h1         1 RN3       0.053200
     69 H8          64.4480    36.8310    56.1840 h1         1 RN3       0.053200
     70 H9          63.8760    39.2160    55.9940 hc         1 RN3       0.058700
     71 H10         65.3680    39.0250    56.9060 hc         1 RN3       0.058700
     72 H11         65.2050    39.8250    53.9390 hc         1 RN3       0.034700
     73 H12         66.7000    39.6010    54.8360 hc         1 RN3       0.034700
     74 H13         66.0770    41.4580    56.3860 hc         1 RN3       0.038200
     75 H14         66.2760    41.9590    54.7130 hc         1 RN3       0.038200
     76 H15         63.7440    41.8460    54.4250 hc         1 RN3       0.044700
     77 H16         63.5920    41.5450    56.1520 hc         1 RN3       0.044700
     78 H17         63.2140    43.9400    55.4840 hc         1 RN3       0.038700
     79 H18         64.8680    44.0290    54.8990 hc         1 RN3       0.038700
     80 H19         65.7040    43.6010    57.2590 hc         1 RN3       0.052200
     81 H20         64.0360    43.4810    57.8070 hc         1 RN3       0.052200
     82 H21         64.8620    45.6760    58.3940 h1         1 RN3       0.060700
     83 H22         63.6600    45.8900    57.1110 h1         1 RN3       0.060700
     84 H23         67.5770    46.7370    54.8930 h1         1 RN3       0.076700
     85 H24         66.8810    48.3510    55.0530 h1         1 RN3       0.076700
     86 H25         67.0110    44.8290    53.8640 ha         1 RN3       0.114000
     87 H26         71.2320    33.2490    54.5930 h1         1 RN3       0.075700
     88 H27         66.7640    42.9040    52.3390 ha         1 RN3       0.121000
     89 H28         66.0870    43.2470    49.9490 ha         1 RN3       0.143000
     90 H29         65.3090    47.6590    46.9080 h1         1 RN3       0.099700
     91 H30         63.3180    48.9420    48.8230 hc         1 RN3       0.073700
     92 H31         63.0100    47.6200    47.7020 hc         1 RN3       0.073700
     93 H32         62.2020    49.9010    46.7780 hc         1 RN3       0.082700
     94 H33         63.4040    49.0820    45.7790 hc         1 RN3       0.082700
     95 H34         73.1590    31.7520    54.5590 hc         1 RN3       0.094700
     96 H35         74.1030    32.9400    53.5810 hc         1 RN3       0.094700
     97 H36         67.6680    35.7980    53.3100 hc         1 RN3       0.056367
     98 H37         68.2590    37.4820    53.2990 hc         1 RN3       0.056367
     99 H38         69.2200    36.1780    52.6030 hc         1 RN3       0.056367
    100 H39         70.2430    29.5250    52.1400 h1         1 RN3       0.048033
    101 H40         70.3100    31.0250    51.1910 h1         1 RN3       0.048033
    102 H41         71.6290    29.8340    51.0740 h1         1 RN3       0.048033
    103 H42         70.7770    38.4820    54.3460 ha         1 RN3       0.130000
    104 H43         66.7910    36.9610    54.4250 hn         1 RN3       0.319500
    105 H44         66.6160    46.2460    56.9050 hn         1 RN3       0.306500
    106 H45         66.0550    51.4070    47.1640 hn         1 RN3       0.333500
    107 Cl          72.9930    41.0300    50.8060 cl         1 RN3      -0.202000
@<TRIPOS>BOND
     1     1     4 2   
     2     1    46 1   
     3     2     4 1   
     4     2    62 1   
     5     2    63 1   
     6     2    64 1   
     7     3    41 1   
     8     3    42 1   
     9     4    52 1   
    10     5     6 ar  
    11     5    45 ar  
    12     5    65 1   
    13     6     7 ar  
    14     6   107 1   
    15     7     8 ar  
    16     7    66 1   
    17     8    44 ar  
    18     8    67 1   
    19     9    10 2   
    20     9    39 1   
    21     9    43 1   
    22    10    52 1   
    23    10    61 1   
    24    11    12 1   
    25    11    39 2   
    26    11    61 1   
    27    12    48 1   
    28    12    60 2   
    29    13    14 1   
    30    13    48 1   
    31    13    68 1   
    32    13    69 1   
    33    14    16 1   
    34    14    70 1   
    35    14    71 1   
    36    15    26 1   
    37    15    46 2   
    38    15    52 1   
    39    16    17 1   
    40    16    72 1   
    41    16    73 1   
    42    17    18 1   
    43    17    74 1   
    44    17    75 1   
    45    18    19 1   
    46    18    76 1   
    47    18    77 1   
    48    19    20 1   
    49    19    78 1   
    50    19    79 1   
    51    20    21 1   
    52    20    80 1   
    53    20    81 1   
    54    21    49 1   
    55    21    82 1   
    56    21    83 1   
    57    22    23 1   
    58    22    49 1   
    59    22    59 2   
    60    23    54 1   
    61    23    84 1   
    62    23    85 1   
    63    24    25 ar  
    64    24    36 ar  
    65    24    54 1   
    66    25    27 ar  
    67    25    86 1   
    68    26    37 1   
    69    26    47 1   
    70    26    87 1   
    71    27    28 ar  
    72    27    88 1   
    73    28    29 ar  
    74    28    89 1   
    75    29    30 1   
    76    29    36 ar  
    77    30    50 1   
    78    30    57 2   
    79    31    32 1   
    80    31    35 1   
    81    31    50 1   
    82    31    90 1   
    83    32    33 1   
    84    32    91 1   
    85    32    92 1   
    86    33    34 1   
    87    33    93 1   
    88    33    94 1   
    89    34    51 1   
    90    34    56 2   
    91    35    51 1   
    92    35    55 2   
    93    36    38 1   
    94    37    41 1   
    95    37    95 1   
    96    37    96 1   
    97    38    50 1   
    98    38    58 2   
    99    39    40 1   
   100    40    97 1   
   101    40    98 1   
   102    40    99 1   
   103    41    53 2   
   104    42   100 1   
   105    42   101 1   
   106    42   102 1   
   107    43    44 1   
   108    43    47 2   
   109    44    45 ar  
   110    45   103 1   
   111    48   104 1   
   112    49   105 1   
   113    51   106 1   
@<TRIPOS>SUBSTRUCTURE
     1 RN3         1 TEMP              0 ****  ****    0 ROOT
