@<TRIPOS>MOLECULE
RN3
  107   113     1     0     0
SMALL
abcg2


@<TRIPOS>ATOM
      1 N           73.8760    32.5630    57.8000 nc         1 RN3      -0.345000
      2 C           72.6940    34.0340    59.4190 c3         1 RN3      -0.131400
      3 O           71.7680    32.8580    51.7590 os         1 RN3      -0.461100
      4 C1          72.9510    33.4420    58.0850 cd         1 RN3       0.418800
      5 C10         72.8940    39.1790    54.4570 ca         1 RN3      -0.110000
      6 C11         73.2890    39.3180    53.1330 ca         1 RN3       0.135000
      7 C12         73.2890    38.2360    52.2600 ca         1 RN3      -0.110000
      8 C13         72.8920    36.9950    52.7300 ca         1 RN3      -0.068500
      9 C14         71.0230    35.3850    55.5660 cc         1 RN3      -0.230900
     10 C15         71.1910    34.6260    56.7080 cd         1 RN3      -0.119200
     11 C16         69.0510    35.8300    56.7160 cd         1 RN3      -0.300600
     12 C17         67.7230    36.2810    57.2000 c          1 RN3       0.632700
     13 C18         65.4840    37.1230    56.6130 c3         1 RN3       0.111000
     14 C19         65.4740    38.5710    57.1190 c3         1 RN3      -0.098400
     15 C2          72.8490    32.9970    55.9380 cd         1 RN3       0.393800
     16 C20         65.4210    39.5930    55.9840 c3         1 RN3      -0.076400
     17 C21         65.6710    41.0330    56.4440 c3         1 RN3      -0.073400
     18 C22         64.4560    41.6540    57.1740 c3         1 RN3      -0.077400
     19 C23         63.9550    42.9430    56.5200 c3         1 RN3      -0.078400
     20 C24         64.8710    44.1430    56.7670 c3         1 RN3      -0.100400
     21 C25         64.5460    45.3450    55.8740 c3         1 RN3       0.100000
     22 C26         65.8350    46.4360    54.0670 c          1 RN3       0.567100
     23 C27         66.7510    46.2020    52.8630 c3         1 RN3       0.080600
     24 C28         65.4100    46.0310    50.8560 ca         1 RN3       0.207100
     25 C29         65.0820    44.6780    51.0430 ca         1 RN3      -0.188000
     26 C3          72.3870    33.1360    54.5260 c3         1 RN3       0.107200
     27 C30         64.3010    43.9950    50.1190 ca         1 RN3      -0.056000
     28 C31         63.8070    44.6160    48.9700 ca         1 RN3      -0.084000
     29 C32         64.1290    45.9440    48.7990 ca         1 RN3      -0.097600
     30 C33         63.7640    46.8650    47.6910 c          1 RN3       0.591600
     31 C34         64.2330    49.2680    47.1800 c6         1 RN3       0.044700
     32 C35         63.3910    50.3830    47.7960 c6         1 RN3      -0.084400
     33 C36         63.3830    51.5960    46.8750 c6         1 RN3      -0.158400
     34 C37         64.7630    52.0490    46.4820 c          1 RN3       0.577000
     35 C38         65.6290    49.7350    46.7690 c          1 RN3       0.571000
     36 C39         64.9060    46.6540    49.7150 ca         1 RN3      -0.175600
     37 C4          73.0330    32.1020    53.5970 c3         1 RN3      -0.111400
     38 C40         65.0460    48.0430    49.2250 c          1 RN3       0.601600
     39 C41         69.7610    36.0760    55.5640 cc         1 RN3      -0.015300
     40 C42         69.2680    36.9020    54.4120 c3         1 RN3      -0.048800
     41 C5          73.0120    32.5790    52.1660 c          1 RN3       0.602100
     42 C6          71.6310    33.4410    50.4470 c3         1 RN3       0.153900
     43 C7          72.0860    35.4860    54.5400 ce         1 RN3       0.553500
     44 C8          72.4810    36.8310    54.0540 ca         1 RN3      -0.140900
     45 C9          72.4820    37.9340    54.9100 ca         1 RN3      -0.068500
     46 N1          73.8130    32.2840    56.4410 nc         1 RN3      -0.330000
     47 N2          72.7440    34.4880    54.0850 n2         1 RN3      -0.571900
     48 N3          66.8170    36.6360    56.2740 ns         1 RN3      -0.496900
     49 N4          65.3690    45.3340    54.6690 ns         1 RN3      -0.508900
     50 N5          64.3270    48.0970    48.0190 n          1 RN3      -0.393400
     51 N6          65.7500    51.0740    46.4680 ns         1 RN3      -0.477500
     52 N7          72.2630    33.7610    56.9300 na         1 RN3      -0.276800
     53 O1          73.9870    32.6970    51.4600 o          1 RN3      -0.470000
     54 O2          66.1740    46.7730    51.6820 os         1 RN3      -0.298100
     55 O3          66.5760    48.9840    46.6660 o          1 RN3      -0.504000
     56 O4          65.0370    53.1890    46.1600 o          1 RN3      -0.514000
     57 O5          63.1190    46.6370    46.6910 o          1 RN3      -0.490000
     58 O6          65.6360    48.9890    49.7000 o          1 RN3      -0.460000
     59 O7          65.5910    47.5840    54.4380 o          1 RN3      -0.570100
     60 O8          67.4780    36.2830    58.4120 o          1 RN3      -0.609100
     61 S           69.8840    34.7710    57.8090 ss         1 RN3       0.357000
     62 H1          73.4650    33.6900    60.1050 hc         1 RN3       0.068033
     63 H2          72.7160    35.1240    59.3720 hc         1 RN3       0.068033
     64 H3          71.7210    33.7320    59.8110 hc         1 RN3       0.068033
     65 H4          72.9060    40.0300    55.1240 ha         1 RN3       0.134500
     66 H5          73.5880    38.3610    51.2280 ha         1 RN3       0.134500
     67 H6          72.8800    36.1450    52.0620 ha         1 RN3       0.130000
     68 H7          64.9000    37.0500    55.6950 h1         1 RN3       0.053200
     69 H8          65.0330    36.4530    57.3450 h1         1 RN3       0.053200
     70 H9          64.6170    38.6930    57.7860 hc         1 RN3       0.058700
     71 H10         66.3630    38.7510    57.7280 hc         1 RN3       0.058700
     72 H11         64.4350    39.5450    55.5090 hc         1 RN3       0.034700
     73 H12         66.1490    39.3100    55.2170 hc         1 RN3       0.034700
     74 H13         66.5540    41.0500    57.0880 hc         1 RN3       0.038200
     75 H14         65.9180    41.6470    55.5720 hc         1 RN3       0.038200
     76 H15         63.6400    40.9270    57.1900 hc         1 RN3       0.044700
     77 H16         64.6980    41.8580    58.2210 hc         1 RN3       0.044700
     78 H17         62.9530    43.1880    56.8870 hc         1 RN3       0.038700
     79 H18         63.8530    42.7740    55.4420 hc         1 RN3       0.038700
     80 H19         65.9130    43.8580    56.5950 hc         1 RN3       0.052200
     81 H20         64.8050    44.4390    57.8170 hc         1 RN3       0.052200
     82 H21         64.7260    46.2910    56.3800 h1         1 RN3       0.060700
     83 H22         63.4900    45.3250    55.5890 h1         1 RN3       0.060700
     84 H23         67.0130    45.1560    52.7180 h1         1 RN3       0.076700
     85 H24         67.6630    46.7720    53.0330 h1         1 RN3       0.076700
     86 H25         65.4380    44.1390    51.9060 ha         1 RN3       0.114000
     87 H26         71.2980    33.0110    54.5160 h1         1 RN3       0.075700
     88 H27         64.0770    42.9520    50.3030 ha         1 RN3       0.121000
     89 H28         63.2020    44.0800    48.2520 ha         1 RN3       0.143000
     90 H29         63.7550    48.9320    46.2540 h1         1 RN3       0.099700
     91 H30         63.7940    50.6490    48.7730 hc         1 RN3       0.073700
     92 H31         62.3750    50.0170    47.9410 hc         1 RN3       0.073700
     93 H32         62.8750    52.4450    47.3310 hc         1 RN3       0.082700
     94 H33         62.8550    51.3650    45.9440 hc         1 RN3       0.082700
     95 H34         72.4810    31.1630    53.6630 hc         1 RN3       0.094700
     96 H35         74.0670    31.9170    53.8770 hc         1 RN3       0.094700
     97 H36         68.6390    36.2940    53.7550 hc         1 RN3       0.056367
     98 H37         68.6790    37.7520    54.7550 hc         1 RN3       0.056367
     99 H38         70.0870    37.2830    53.8110 hc         1 RN3       0.056367
    100 H39         70.5760    33.6770    50.3430 h1         1 RN3       0.048033
    101 H40         72.2340    34.3460    50.3770 h1         1 RN3       0.048033
    102 H41         71.9400    32.7290    49.6830 h1         1 RN3       0.048033
    103 H42         72.1680    37.8230    55.9400 ha         1 RN3       0.130000
    104 H43         67.0310    36.5000    55.3020 hn         1 RN3       0.319500
    105 H44         65.5680    44.4350    54.2580 hn         1 RN3       0.306500
    106 H45         66.6710    51.3760    46.1650 hn         1 RN3       0.333500
    107 CL          73.7910    40.8880    52.5500 cl         1 RN3      -0.202000
@<TRIPOS>BOND
     1     1     4 2   
     2     1    46 1   
     3     2     4 1   
     4     2    62 1   
     5     2    63 1   
     6     2    64 1   
     7     3    41 1   
     8     3    42 1   
     9     4    52 1   
    10     5     6 ar  
    11     5    45 ar  
    12     5    65 1   
    13     6     7 ar  
    14     6   107 1   
    15     7     8 ar  
    16     7    66 1   
    17     8    44 ar  
    18     8    67 1   
    19     9    10 2   
    20     9    39 1   
    21     9    43 1   
    22    10    52 1   
    23    10    61 1   
    24    11    12 1   
    25    11    39 2   
    26    11    61 1   
    27    12    48 1   
    28    12    60 2   
    29    13    14 1   
    30    13    48 1   
    31    13    68 1   
    32    13    69 1   
    33    14    16 1   
    34    14    70 1   
    35    14    71 1   
    36    15    26 1   
    37    15    46 2   
    38    15    52 1   
    39    16    17 1   
    40    16    72 1   
    41    16    73 1   
    42    17    18 1   
    43    17    74 1   
    44    17    75 1   
    45    18    19 1   
    46    18    76 1   
    47    18    77 1   
    48    19    20 1   
    49    19    78 1   
    50    19    79 1   
    51    20    21 1   
    52    20    80 1   
    53    20    81 1   
    54    21    49 1   
    55    21    82 1   
    56    21    83 1   
    57    22    23 1   
    58    22    49 1   
    59    22    59 2   
    60    23    54 1   
    61    23    84 1   
    62    23    85 1   
    63    24    25 ar  
    64    24    36 ar  
    65    24    54 1   
    66    25    27 ar  
    67    25    86 1   
    68    26    37 1   
    69    26    47 1   
    70    26    87 1   
    71    27    28 ar  
    72    27    88 1   
    73    28    29 ar  
    74    28    89 1   
    75    29    30 1   
    76    29    36 ar  
    77    30    50 1   
    78    30    57 2   
    79    31    32 1   
    80    31    35 1   
    81    31    50 1   
    82    31    90 1   
    83    32    33 1   
    84    32    91 1   
    85    32    92 1   
    86    33    34 1   
    87    33    93 1   
    88    33    94 1   
    89    34    51 1   
    90    34    56 2   
    91    35    51 1   
    92    35    55 2   
    93    36    38 1   
    94    37    41 1   
    95    37    95 1   
    96    37    96 1   
    97    38    50 1   
    98    38    58 2   
    99    39    40 1   
   100    40    97 1   
   101    40    98 1   
   102    40    99 1   
   103    41    53 2   
   104    42   100 1   
   105    42   101 1   
   106    42   102 1   
   107    43    44 1   
   108    43    47 2   
   109    44    45 ar  
   110    45   103 1   
   111    48   104 1   
   112    49   105 1   
   113    51   106 1   
@<TRIPOS>SUBSTRUCTURE
     1 RN3         1 TEMP              0 ****  ****    0 ROOT
