@<TRIPOS>MOLECULE
RN4
   60    64     1     0     0
SMALL
No Charge or Current Charge


@<TRIPOS>ATOM
      1 C10         19.5440   -11.8000    39.6820 c6         1 RN4       0.183800
      2 C11         19.2190   -13.0790    40.4880 c6         1 RN4      -0.094400
      3 C12         20.4130   -13.4680    41.4070 c6         1 RN4      -0.073400
      4 C14         20.3650   -10.9620    41.8990 c6         1 RN4       0.183800
      5 C16         19.7110   -10.1530    36.5700 ca         1 RN4       0.177300
      6 C18         21.2060   -11.8660    35.8820 cc         1 RN4      -0.044400
      7 C19         20.0050   -12.2480    35.2870 cd         1 RN4      -0.080600
      8 C20         19.8340   -13.4970    34.4480 c6         1 RN4      -0.001200
      9 C21         20.9760   -14.5130    34.6990 c6         1 RN4      -0.013400
     10 C23         21.1170   -15.5350    32.3490 ca         1 RN4      -0.106000
     11 C25         20.7580   -17.9150    31.9790 ca         1 RN4      -0.109000
     12 C26         20.5420   -18.0940    33.3550 ca         1 RN4      -0.109500
     13 C29         22.4640   -12.7050    35.7430 c6         1 RN4      -0.018200
     14 C02         21.8990    -9.9300    37.4600 ca         1 RN4       0.441900
     15 N03         21.5220    -8.8310    38.1280 nb         1 RN4      -0.280000
     16 C04         20.2330    -8.4490    37.9900 ca         1 RN4       0.311300
     17 S05         19.7080    -7.0200    38.9250 ss         1 RN4      -0.345300
     18 C06         20.0490    -7.5160    40.6800 c3         1 RN4       0.050600
     19 C07         18.8900    -8.3270    41.3090 c3         1 RN4      -0.068400
     20 N09         19.7740   -10.6120    40.5670 n3         1 RN4      -0.751600
     21 C13         21.2520   -12.2280    41.8310 c6         1 RN4      -0.094400
     22 N15         19.3000    -9.0550    37.2250 nb         1 RN4      -0.173000
     23 C17         21.0000   -10.6440    36.6490 ca         1 RN4      -0.241800
     24 C22         20.9030   -15.7060    33.7340 ca         1 RN4      -0.079300
     25 C24         21.0450   -16.6350    31.4770 ca         1 RN4      -0.109500
     26 C27         20.6130   -16.9950    34.2290 ca         1 RN4      -0.106000
     27 C28         22.3410   -13.7810    34.6340 c6         1 RN4      -0.067400
     28 S30         18.6390   -11.1340    35.5680 ss         1 RN4      -0.116900
     29 H1          18.7380   -11.6060    38.9600 h1         1 RN4       0.038450
     30 H2          20.4490   -11.9950    39.0890 h1         1 RN4       0.038450
     31 H3          18.3170   -12.9100    41.0920 hc         1 RN4       0.042200
     32 H4          18.9860   -13.9080    39.8060 hc         1 RN4       0.042200
     33 H5          20.0280   -13.9840    42.2980 hc         1 RN4       0.037700
     34 H6          21.0660   -14.1850    40.8920 hc         1 RN4       0.037700
     35 H7          20.9640   -10.1220    42.2790 h1         1 RN4       0.038450
     36 H8          19.5660   -11.1440    42.6340 h1         1 RN4       0.038450
     37 H9          19.8070   -13.2160    33.3860 hc         1 RN4       0.057700
     38 H10         18.8670   -13.9730    34.6620 hc         1 RN4       0.057700
     39 H11         20.8590   -14.8920    35.7240 hc         1 RN4       0.055700
     40 H12         21.3380   -14.5500    31.9450 ha         1 RN4       0.111000
     41 H13         20.7020   -18.7650    31.3030 ha         1 RN4       0.113000
     42 H14         20.3190   -19.0840    33.7450 ha         1 RN4       0.112500
     43 H15         22.6800   -13.2030    36.6980 hc         1 RN4       0.045200
     44 H16         23.3320   -12.0730    35.5180 hc         1 RN4       0.045200
     45 H17         23.6910    -9.8590    38.4210 hn         1 RN4       0.497000
     46 H18         23.4640   -11.2380    37.4110 hn         1 RN4       0.497000
     47 H19         20.9840    -8.0890    40.7280 h1         1 RN4       0.082200
     48 H20         20.1890    -6.6010    41.2690 h1         1 RN4       0.082200
     49 H21         19.1070    -8.4770    42.3730 hc         1 RN4       0.042700
     50 H22         17.9740    -7.7260    41.2670 hc         1 RN4       0.042700
     51 H26         22.0660   -12.0620    41.1120 hc         1 RN4       0.042200
     52 H27         21.7280   -12.4110    42.8040 hc         1 RN4       0.042200
     53 H28         21.2120   -16.4940    30.4110 ha         1 RN4       0.112500
     54 H29         20.4430   -17.1490    35.2920 ha         1 RN4       0.111000
     55 H30         23.1620   -14.5050    34.7320 hc         1 RN4       0.048200
     56 H31         22.4630   -13.3040    33.6520 hc         1 RN4       0.048200
     57 C08         18.6040    -9.7020    40.6560 c3         1 RN4       0.179800
     58 N01         23.1940   -10.2900    37.6470 nv         1 RN4      -1.078900
     59 H23         17.8000   -10.1910    41.2220 h1         1 RN4       0.037200
     60 H24         18.2030    -9.5160    39.6520 h1         1 RN4       0.037200
@<TRIPOS>BOND
     1     1     2 1   
     2     1    20 1   
     3     1    29 1   
     4     1    30 1   
     5     2     3 1   
     6     2    31 1   
     7     2    32 1   
     8     3    21 1   
     9     3    33 1   
    10     3    34 1   
    11     4    20 1   
    12     4    21 1   
    13     4    35 1   
    14     4    36 1   
    15     5    22 ar  
    16     5    23 ar  
    17     5    28 1   
    18     6     7 2   
    19     6    13 1   
    20     6    23 1   
    21     7     8 1   
    22     7    28 1   
    23     8     9 1   
    24     8    37 1   
    25     8    38 1   
    26     9    24 1   
    27     9    27 1   
    28     9    39 1   
    29    10    24 ar  
    30    10    25 ar  
    31    10    40 1   
    32    11    12 ar  
    33    11    25 ar  
    34    11    41 1   
    35    12    26 ar  
    36    12    42 1   
    37    13    27 1   
    38    13    43 1   
    39    13    44 1   
    40    14    15 ar  
    41    14    23 ar  
    42    14    58 1   
    43    15    16 ar  
    44    16    17 1   
    45    16    22 ar  
    46    17    18 1   
    47    18    19 1   
    48    18    47 1   
    49    18    48 1   
    50    19    49 1   
    51    19    50 1   
    52    19    57 1   
    53    20    57 1   
    54    21    51 1   
    55    21    52 1   
    56    24    26 ar  
    57    25    53 1   
    58    26    54 1   
    59    27    55 1   
    60    27    56 1   
    61    45    58 1   
    62    46    58 1   
    63    57    59 1   
    64    57    60 1   
@<TRIPOS>SUBSTRUCTURE
     1 RN4         1 TEMP              0 ****  ****    0 ROOT
