@<TRIPOS>MOLECULE
RN4
   60    64     1     0     0
SMALL
bcc


@<TRIPOS>ATOM
      1 C10         18.9590   -11.5110    40.2130 c6         1 RN4       0.183800
      2 C11         18.8480   -12.6980    41.1640 c6         1 RN4      -0.094400
      3 C12         20.2510   -13.1440    41.6060 c6         1 RN4      -0.073400
      4 C14         20.5610   -10.6590    41.8400 c6         1 RN4       0.183800
      5 C16         19.5950   -10.5270    36.5100 ca         1 RN4       0.505600
      6 C18         21.0990   -12.2300    35.8780 cc         1 RN4      -0.044400
      7 C19         20.0230   -12.5310    35.1110 cd         1 RN4      -0.080600
      8 C20         19.9190   -13.6740    34.1560 c6         1 RN4      -0.001200
      9 C21         21.0140   -14.7050    34.4520 c6         1 RN4      -0.013400
     10 C23         21.3200   -15.4730    32.0610 ca         1 RN4      -0.124000
     11 C25         21.2030   -17.8020    31.4590 ca         1 RN4      -0.127000
     12 C26         20.9520   -18.1220    32.7860 ca         1 RN4      -0.127500
     13 C29         22.3540   -13.0500    35.8210 c6         1 RN4      -0.018200
     14 C02         21.6470   -10.3960    37.6700 ca         1 RN4       0.770200
     15 N03         21.1700    -9.3050    38.2630 nb         1 RN4      -0.806000
     16 C04         19.9350    -8.9200    37.9980 ca         1 RN4       0.837300
     17 S05         19.3070    -7.4760    38.7980 ss         1 RN4      -0.297400
     18 C06         20.1460    -7.5050    40.4110 c3         1 RN4       0.002700
     19 C07         19.2500    -7.9890    41.5420 c3         1 RN4      -0.068400
     20 N09         19.5540   -10.3400    40.8420 n3         1 RN4      -0.751600
     21 C13         21.2460   -11.9790    41.5260 c6         1 RN4      -0.094400
     22 N15         19.0930    -9.4680    37.1410 nb         1 RN4      -0.699000
     23 C17         20.8600   -11.0760    36.7060 ca         1 RN4      -0.372400
     24 C22         21.0690   -15.7810    33.3980 ca         1 RN4      -0.079300
     25 C24         21.3870   -16.4720    31.1000 ca         1 RN4      -0.127500
     26 C27         20.8850   -17.1170    33.7440 ca         1 RN4      -0.124000
     27 C28         22.3600   -13.9970    34.6230 c6         1 RN4      -0.067400
     28 S30         18.6950   -11.4280    35.3390 ss         1 RN4      -0.116900
     29 H1          17.9800   -11.2350    39.8190 h1         1 RN4       0.038450
     30 H2          19.5540   -11.8060    39.3400 h1         1 RN4       0.038450
     31 H3          18.2530   -12.3990    42.0320 hc         1 RN4       0.042200
     32 H4          18.3080   -13.5190    40.6880 hc         1 RN4       0.042200
     33 H5          20.2130   -13.5310    42.6270 hc         1 RN4       0.037700
     34 H6          20.6020   -13.9680    40.9800 hc         1 RN4       0.037700
     35 H7          21.3040    -9.8550    41.8850 h1         1 RN4       0.038450
     36 H8          20.1210   -10.7240    42.8520 h1         1 RN4       0.038450
     37 H9          20.0080   -13.3090    33.1280 hc         1 RN4       0.057700
     38 H10         18.9370   -14.1480    34.2260 hc         1 RN4       0.057700
     39 H11         20.7660   -15.1820    35.4070 hc         1 RN4       0.055700
     40 H12         21.4680   -14.4430    31.7580 ha         1 RN4       0.129000
     41 H13         21.2550   -18.5810    30.7100 ha         1 RN4       0.131000
     42 H14         20.8060   -19.1540    33.0780 ha         1 RN4       0.130500
     43 H15         22.4570   -13.6280    36.7460 hc         1 RN4       0.045200
     44 H16         23.2310   -12.4020    35.7550 hc         1 RN4       0.045200
     45 H17         23.3470   -10.2990    38.7660 hn         1 RN4       0.441800
     46 H18         23.2860   -11.6430    37.7020 hn         1 RN4       0.441800
     47 H19         21.0280    -8.1340    40.2970 h1         1 RN4       0.082200
     48 H20         20.4860    -6.4880    40.6080 h1         1 RN4       0.082200
     49 H21         19.8570    -8.0030    42.4530 hc         1 RN4       0.042700
     50 H22         18.4520    -7.2650    41.7270 hc         1 RN4       0.042700
     51 H26         21.6880   -11.9190    40.5270 hc         1 RN4       0.042200
     52 H27         22.0750   -12.1330    42.2190 hc         1 RN4       0.042200
     53 H28         21.5810   -16.2110    30.0680 ha         1 RN4       0.130500
     54 H29         20.6860   -17.3760    34.7780 ha         1 RN4       0.129000
     55 H30         23.1570   -14.7320    34.7500 hc         1 RN4       0.048200
     56 H31         22.5950   -13.4350    33.7140 hc         1 RN4       0.048200
     57 C08         18.6090    -9.3520    41.3000 c3         1 RN4       0.179800
     58 N01         22.8830   -10.7790    38.0130 nv         1 RN4      -0.968500
     59 H23         18.0890    -9.6530    42.2270 h1         1 RN4       0.037200
     60 H24         17.8390    -9.2380    40.5340 h1         1 RN4       0.037200
@<TRIPOS>BOND
     1     1     2 1   
     2     1    20 1   
     3     1    29 1   
     4     1    30 1   
     5     2     3 1   
     6     2    31 1   
     7     2    32 1   
     8     3    21 1   
     9     3    33 1   
    10     3    34 1   
    11     4    20 1   
    12     4    21 1   
    13     4    35 1   
    14     4    36 1   
    15     5    22 ar  
    16     5    23 ar  
    17     5    28 1   
    18     6     7 2   
    19     6    13 1   
    20     6    23 1   
    21     7     8 1   
    22     7    28 1   
    23     8     9 1   
    24     8    37 1   
    25     8    38 1   
    26     9    24 1   
    27     9    27 1   
    28     9    39 1   
    29    10    24 ar  
    30    10    25 ar  
    31    10    40 1   
    32    11    12 ar  
    33    11    25 ar  
    34    11    41 1   
    35    12    26 ar  
    36    12    42 1   
    37    13    27 1   
    38    13    43 1   
    39    13    44 1   
    40    14    15 ar  
    41    14    23 ar  
    42    14    58 1   
    43    15    16 ar  
    44    16    17 1   
    45    16    22 ar  
    46    17    18 1   
    47    18    19 1   
    48    18    47 1   
    49    18    48 1   
    50    19    49 1   
    51    19    50 1   
    52    19    57 1   
    53    20    57 1   
    54    21    51 1   
    55    21    52 1   
    56    24    26 ar  
    57    25    53 1   
    58    26    54 1   
    59    27    55 1   
    60    27    56 1   
    61    45    58 1   
    62    46    58 1   
    63    57    59 1   
    64    57    60 1   
@<TRIPOS>SUBSTRUCTURE
     1 RN4         1 TEMP              0 ****  ****    0 ROOT
