@<TRIPOS>MOLECULE
RN5
   56    60     1     0     0
SMALL
No Charge or Current Charge


@<TRIPOS>ATOM
      1 N1          21.5880    70.5950    49.9660 n          1 RN5      -0.236400
      2 C7          19.1640    76.2690    54.7510 ca         1 RN5      -0.126800
      3 C8          19.2100    77.6370    55.2090 cc         1 RN5      -0.153200
      4 C9          20.2530    78.3370    54.6230 cd         1 RN5      -0.171400
      5 O1          25.7400    72.7070    59.7390 o          1 RN5      -0.716000
      6 C1          20.1060    70.3770    49.9580 c6         1 RN5       0.121700
      7 C5          20.2750    74.6910    53.2850 ca         1 RN5      -0.165000
      8 C6          20.1590    75.9730    53.8410 ca         1 RN5      -0.103000
      9 C4          19.3550    73.6910    53.6670 ca         1 RN5       0.339000
     10 C3          20.1660    71.9830    51.9520 c6         1 RN5       0.282800
     11 C2          19.4200    70.8080    51.2880 c6         1 RN5      -0.096400
     12 N           19.4210    72.3930    53.1550 nu         1 RN5      -0.963200
     13 C           19.7400    68.9020    49.6400 c3         1 RN5      -0.102100
     14 O           27.6020    72.8090    58.6760 o          1 RN5      -0.716000
     15 C10         18.2390    75.2920    55.1480 ca         1 RN5      -0.027000
     16 C11         18.3430    73.9970    54.5990 ca         1 RN5      -0.181000
     17 C12         21.6020    71.5140    52.2390 ca         1 RN5      -0.139300
     18 C13         22.2270    70.7080    51.2620 ca         1 RN5      -0.064000
     19 C14         23.5500    70.2750    51.4800 ca         1 RN5      -0.127000
     20 C15         24.2160    70.5740    52.6800 ca         1 RN5      -0.100000
     21 C16         23.5960    71.3510    53.6860 cp         1 RN5       0.013000
     22 C17         22.2820    71.8150    53.4420 ca         1 RN5      -0.087000
     23 C18         24.3080    71.6770    54.9650 cp         1 RN5      -0.096000
     24 C19         23.6070    71.7810    56.1910 ca         1 RN5      -0.121000
     25 C20         24.2720    72.0860    57.3910 ca         1 RN5      -0.093000
     26 C21         25.6690    72.3000    57.4090 ca         1 RN5      -0.114600
     27 C22         26.3770    72.1990    56.1900 ca         1 RN5      -0.093000
     28 C23         25.7080    71.8920    54.9920 ca         1 RN5      -0.121000
     29 C24         26.3920    72.6310    58.7070 c          1 RN5       0.711600
     30 C25         22.2350    70.8430    48.7190 c          1 RN5       0.611100
     31 C26         23.6190    71.5030    48.6860 c3         1 RN5      -0.172100
     32 O2          21.6720    70.6070    47.6540 o          1 RN5      -0.615100
     33 S           21.2210    77.3510    53.4880 ss         1 RN5       0.028400
     34 H           19.6790    71.0070    49.1630 h1         1 RN5       0.070700
     35 H8          21.0720    74.4800    52.5790 ha         1 RN5       0.126000
     36 H1          20.1990    72.8100    51.2240 h1         1 RN5       0.073700
     37 H5          18.3730    71.0760    51.0900 hc         1 RN5       0.053200
     38 H6          19.4010    69.9630    51.9900 hc         1 RN5       0.053200
     39 H7          18.7380    71.7370    53.5320 hn         1 RN5       0.476000
     40 H3          18.6530    68.7600    49.6190 hc         1 RN5       0.043033
     41 H2          20.1300    68.5940    48.6630 hc         1 RN5       0.043033
     42 H4          20.1540    68.2190    50.3920 hc         1 RN5       0.043033
     43 H11         17.4570    75.5270    55.8660 ha         1 RN5       0.112000
     44 H12         17.6330    73.2330    54.9000 ha         1 RN5       0.109000
     45 H13         24.0590    69.6670    50.7380 ha         1 RN5       0.111000
     46 H14         25.2220    70.1920    52.8310 ha         1 RN5       0.123000
     47 H15         21.7980    72.4270    54.1960 ha         1 RN5       0.128000
     48 H16         22.5340    71.6100    56.2190 ha         1 RN5       0.086500
     49 H17         23.6950    72.1530    58.3100 ha         1 RN5       0.129500
     50 H18         27.4530    72.3600    56.1650 ha         1 RN5       0.129500
     51 H19         26.2840    71.8360    54.0730 ha         1 RN5       0.086500
     52 H22         23.7980    72.0160    47.7350 hc         1 RN5       0.062700
     53 H20         23.7540    72.1730    49.5420 hc         1 RN5       0.062700
     54 H21         24.3810    70.7290    48.8110 hc         1 RN5       0.062700
     55 H9          18.5200    78.0790    55.9250 ha         1 RN5       0.197000
     56 H10         20.5210    79.3760    54.7850 h4         1 RN5       0.210000
@<TRIPOS>BOND
     1     1     6 1   
     2     1    18 1   
     3     1    30 1   
     4     2     3 1   
     5     2     8 ar  
     6     2    15 ar  
     7     3     4 2   
     8     3    55 1   
     9     4    33 1   
    10     4    56 1   
    11     5    29 1   
    12     6    11 1   
    13     6    13 1   
    14     6    34 1   
    15     7     8 ar  
    16     7     9 ar  
    17     7    35 1   
    18     8    33 1   
    19     9    12 1   
    20     9    16 ar  
    21    10    11 1   
    22    10    12 1   
    23    10    17 1   
    24    10    36 1   
    25    11    37 1   
    26    11    38 1   
    27    12    39 1   
    28    13    40 1   
    29    13    41 1   
    30    13    42 1   
    31    14    29 1   
    32    15    16 ar  
    33    15    43 1   
    34    16    44 1   
    35    17    18 ar  
    36    17    22 ar  
    37    18    19 ar  
    38    19    20 ar  
    39    19    45 1   
    40    20    21 ar  
    41    20    46 1   
    42    21    22 ar  
    43    21    23 1   
    44    22    47 1   
    45    23    24 ar  
    46    23    28 ar  
    47    24    25 ar  
    48    24    48 1   
    49    25    26 ar  
    50    25    49 1   
    51    26    27 ar  
    52    26    29 1   
    53    27    28 ar  
    54    27    50 1   
    55    28    51 1   
    56    30    31 1   
    57    30    32 2   
    58    31    52 1   
    59    31    53 1   
    60    31    54 1   
@<TRIPOS>SUBSTRUCTURE
     1 RN5         1 TEMP              0 ****  ****    0 ROOT
