@<TRIPOS>MOLECULE
RN5
   56    60     1     0     0
SMALL
bcc


@<TRIPOS>ATOM
      1 N1          21.5390    70.8010    50.0200 n          1 RN5      -0.396000
      2 C7          19.4110    76.3470    54.5990 ca         1 RN5      -0.126800
      3 C8          19.5410    77.7360    54.9300 cc         1 RN5      -0.103200
      4 C9          20.3060    78.4130    54.0470 cd         1 RN5      -0.121400
      5 O1          25.4720    72.0380    59.8310 o          1 RN5      -0.821300
      6 C1          20.1740    70.2480    50.1030 c6         1 RN5       0.121700
      7 C5          20.1390    74.7220    52.9080 ca         1 RN5      -0.183000
      8 C6          20.1100    76.0130    53.4300 ca         1 RN5       0.023900
      9 C4          19.4260    73.7210    53.5640 ca         1 RN5       0.200600
     10 C3          20.1050    71.9530    51.9740 c6         1 RN5       0.282800
     11 C2          19.4950    70.6660    51.4160 c6         1 RN5      -0.096400
     12 N           19.3480    72.4340    53.0920 nu         1 RN5      -0.769600
     13 C           20.1780    68.7370    49.9320 c3         1 RN5      -0.102100
     14 O           27.3520    72.5800    58.7570 o          1 RN5      -0.821300
     15 C10         18.7160    75.3230    55.2570 ca         1 RN5      -0.045000
     16 C11         18.7220    74.0470    54.7500 ca         1 RN5      -0.199000
     17 C12         21.5500    71.6190    52.2640 ca         1 RN5      -0.139300
     18 C13         22.2370    70.9830    51.2290 ca         1 RN5       0.028600
     19 C14         23.5270    70.5150    51.4390 ca         1 RN5      -0.145000
     20 C15         24.1540    70.7400    52.6540 ca         1 RN5      -0.118000
     21 C16         23.4920    71.3940    53.6940 cp         1 RN5       0.013000
     22 C17         22.1750    71.8100    53.4830 ca         1 RN5      -0.105000
     23 C18         24.1600    71.6190    54.9900 cp         1 RN5      -0.096000
     24 C19         23.4650    71.4890    56.1940 ca         1 RN5      -0.139000
     25 C20         24.1030    71.6840    57.4080 ca         1 RN5      -0.111000
     26 C21         25.4520    72.0270    57.4690 ca         1 RN5      -0.114600
     27 C22         26.1410    72.1680    56.2670 ca         1 RN5      -0.111000
     28 C23         25.5110    71.9640    55.0500 ca         1 RN5      -0.139000
     29 C24         26.1550    72.2350    58.8070 c          1 RN5       0.922200
     30 C25         22.0260    71.1620    48.7970 c          1 RN5       0.678100
     31 C26         23.3240    71.9320    48.7420 c3         1 RN5      -0.172100
     32 O2          21.4160    70.8950    47.7740 o          1 RN5      -0.615100
     33 S           20.9090    77.4050    52.7700 ss         1 RN5      -0.098500
     34 H           19.6180    70.6970    49.2810 h1         1 RN5       0.070700
     35 H8          20.7150    74.5160    52.0160 ha         1 RN5       0.144000
     36 H1          20.0600    72.7100    51.1810 h1         1 RN5       0.073700
     37 H5          18.4280    70.8000    51.2310 hc         1 RN5       0.053200
     38 H6          19.5980    69.8790    52.1680 hc         1 RN5       0.053200
     39 H7          19.0510    71.7340    53.7550 hn         1 RN5       0.420800
     40 H3          19.1600    68.3500    49.9900 hc         1 RN5       0.043033
     41 H2          20.5930    68.4500    48.9670 hc         1 RN5       0.043033
     42 H4          20.7630    68.2590    50.7190 hc         1 RN5       0.043033
     43 H11         18.1680    75.5370    56.1670 ha         1 RN5       0.130000
     44 H12         18.1740    73.2650    55.2620 ha         1 RN5       0.127000
     45 H13         24.0420    69.9630    50.6630 ha         1 RN5       0.129000
     46 H14         25.1580    70.3650    52.8040 ha         1 RN5       0.141000
     47 H15         21.6410    72.3100    54.2820 ha         1 RN5       0.146000
     48 H16         22.4190    71.2050    56.1840 ha         1 RN5       0.104500
     49 H17         23.5440    71.5630    58.3270 ha         1 RN5       0.147500
     50 H18         27.1860    72.4460    56.2830 ha         1 RN5       0.147500
     51 H19         26.0730    72.0960    54.1320 ha         1 RN5       0.104500
     52 H22         23.3290    72.5210    47.8270 hc         1 RN5       0.062700
     53 H20         23.4740    72.5960    49.5910 hc         1 RN5       0.062700
     54 H21         24.1760    71.2530    48.6960 hc         1 RN5       0.062700
     55 H9          19.0780    78.1930    55.7940 ha         1 RN5       0.147000
     56 H10         20.5620    79.4620    54.0630 h4         1 RN5       0.160000
@<TRIPOS>BOND
     1     1     6 1   
     2     1    18 1   
     3     1    30 1   
     4     2     3 1   
     5     2     8 ar  
     6     2    15 ar  
     7     3     4 2   
     8     3    55 1   
     9     4    33 1   
    10     4    56 1   
    11     5    29 1   
    12     6    11 1   
    13     6    13 1   
    14     6    34 1   
    15     7     8 ar  
    16     7     9 ar  
    17     7    35 1   
    18     8    33 1   
    19     9    12 1   
    20     9    16 ar  
    21    10    11 1   
    22    10    12 1   
    23    10    17 1   
    24    10    36 1   
    25    11    37 1   
    26    11    38 1   
    27    12    39 1   
    28    13    40 1   
    29    13    41 1   
    30    13    42 1   
    31    14    29 1   
    32    15    16 ar  
    33    15    43 1   
    34    16    44 1   
    35    17    18 ar  
    36    17    22 ar  
    37    18    19 ar  
    38    19    20 ar  
    39    19    45 1   
    40    20    21 ar  
    41    20    46 1   
    42    21    22 ar  
    43    21    23 1   
    44    22    47 1   
    45    23    24 ar  
    46    23    28 ar  
    47    24    25 ar  
    48    24    48 1   
    49    25    26 ar  
    50    25    49 1   
    51    26    27 ar  
    52    26    29 1   
    53    27    28 ar  
    54    27    50 1   
    55    28    51 1   
    56    30    31 1   
    57    30    32 2   
    58    31    52 1   
    59    31    53 1   
    60    31    54 1   
@<TRIPOS>SUBSTRUCTURE
     1 RN5         1 TEMP              0 ****  ****    0 ROOT
