@<TRIPOS>MOLECULE
RN6
  104   110     1     0     0
SMALL
abcg2


@<TRIPOS>ATOM
      1 N          -12.6500    -2.8110    -0.5650 nc         1 RN6      -0.348000
      2 C          -12.1100    -3.3320     1.8010 c3         1 RN6      -0.129400
      3 O            8.2470     0.9090    -0.5730 os         1 RN6      -0.282100
      4 C1         -11.8390    -2.7890     0.4510 cd         1 RN6       0.408800
      5 C10         -0.1720     0.2790    -1.6750 c3         1 RN6      -0.074400
      6 C11          1.0650    -0.2660    -0.9730 c3         1 RN6      -0.072400
      7 C12          2.3440     0.4470    -1.3910 c3         1 RN6      -0.094400
      8 C13          3.5640    -0.1070    -0.6740 c3         1 RN6       0.106000
      9 C14          5.9200     0.5270    -0.4280 c          1 RN6       0.600100
     10 C15          7.0070     1.4180    -1.0080 c3         1 RN6       0.070600
     11 C16          9.3560     1.5790    -0.8770 ca         1 RN6       0.209100
     12 C17          9.3990     2.7680    -1.6200 ca         1 RN6      -0.196000
     13 C18         10.6050     3.4000    -1.8900 ca         1 RN6      -0.053000
     14 C19         11.8220     2.8880    -1.4430 ca         1 RN6      -0.085000
     15 C2         -10.8740    -1.8090    -1.2320 cd         1 RN6       0.380800
     16 C20         11.7630     1.7200    -0.7200 ca         1 RN6      -0.096600
     17 C21         12.8650     0.9360    -0.1170 c          1 RN6       0.590600
     18 C22         12.9960    -1.1460     1.2320 c6         1 RN6       0.039700
     19 C23         13.7700    -0.4720     2.3540 c          1 RN6       0.571000
     20 C24         15.3890    -2.3490     2.3530 c          1 RN6       0.580000
     21 C25         14.6190    -3.0210     1.2540 c6         1 RN6      -0.163400
     22 C26         13.8780    -2.0350     0.3670 c6         1 RN6      -0.085400
     23 C27         10.5720     1.0710    -0.4340 ca         1 RN6      -0.186600
     24 C28         10.8800    -0.1360     0.3570 c          1 RN6       0.604600
     25 C29         -9.1360     0.3460    -0.2090 ce         1 RN6       0.551500
     26 C3          -9.8610    -1.0370    -2.0060 c3         1 RN6       0.109200
     27 C30         -8.9520     1.7100     0.3370 ca         1 RN6      -0.139900
     28 C31         -8.6530     2.7680    -0.5200 ca         1 RN6      -0.068000
     29 C32         -8.5040     4.0540    -0.0320 ca         1 RN6      -0.114500
     30 C33         -8.6710     4.2840     1.3260 ca         1 RN6       0.132000
     31 C34         -8.9780     3.2510     2.1970 ca         1 RN6      -0.114500
     32 C35         -9.1100     1.9660     1.6960 ca         1 RN6      -0.068000
     33 C36         -8.7390    -0.7870     0.6470 cc         1 RN6      -0.206900
     34 C37         -9.5200    -1.9010     0.7940 cd         1 RN6      -0.123200
     35 C38         -7.4240    -2.0600     2.0770 cd         1 RN6      -0.211300
     36 C39         -6.3180    -2.5150     2.9700 c3         1 RN6      -0.022800
     37 C4          -8.5690    -1.8380    -2.2530 c3         1 RN6      -0.174400
     38 C40         -7.5150    -0.8850     1.3890 cc         1 RN6      -0.069300
     39 C41         -6.4270     0.1440     1.3970 c3         1 RN6      -0.035800
     40 C5          -7.4760    -0.9200    -2.7600 c          1 RN6       0.601100
     41 C6          -5.1730    -0.1510    -2.3680 c3         1 RN6       0.104000
     42 C7          -3.9480    -0.6950    -1.6500 c3         1 RN6      -0.095400
     43 C8          -2.6870     0.0850    -1.9940 c3         1 RN6      -0.073400
     44 C9          -1.4490    -0.4580    -1.2920 c3         1 RN6      -0.074400
     45 N1         -12.0490    -2.1920    -1.6150 nc         1 RN6      -0.328000
     46 N2          -6.3460    -0.9360    -2.0400 ns         1 RN6      -0.509900
     47 N3           4.7670     0.5790    -1.1030 ns         1 RN6      -0.513900
     48 N4          12.2700    -0.1530     0.4900 n          1 RN6      -0.389400
     49 N5          14.8820    -1.1410     2.7990 ns         1 RN6      -0.478500
     50 N6          -9.6580     0.2540    -1.3660 n2         1 RN6      -0.557900
     51 N7         -10.6840    -2.1570     0.0780 na         1 RN6      -0.256800
     52 O1          16.3810    -2.8130     2.8650 o          1 RN6      -0.512000
     53 O2          13.4200     0.5690     2.8540 o          1 RN6      -0.502000
     54 O3          14.0480     1.1660    -0.1320 o          1 RN6      -0.485000
     55 O4          10.1420    -0.9670     0.8160 o          1 RN6      -0.459000
     56 O5           6.0910    -0.1250     0.5880 o          1 RN6      -0.552100
     57 O6          -7.6330    -0.2140    -3.7460 o          1 RN6      -0.589100
     58 S           -8.8010    -3.0650     1.8240 ss         1 RN6       0.251000
     59 CL          -8.4890     5.8900     1.9440 cl         1 RN6      -0.199000
     60 H1         -11.5040    -4.2120     2.0190 hc         1 RN6       0.064700
     61 H2         -11.9210    -2.5890     2.5750 hc         1 RN6       0.064700
     62 H3         -13.1550    -3.6280     1.8570 hc         1 RN6       0.064700
     63 H4          -0.2820     1.3440    -1.4460 hc         1 RN6       0.040200
     64 H5          -0.0320     0.2150    -2.7600 hc         1 RN6       0.040200
     65 H6           0.9360    -0.1790     0.1110 hc         1 RN6       0.043700
     66 H7           1.1600    -1.3370    -1.1840 hc         1 RN6       0.043700
     67 H8           2.4760     0.3460    -2.4730 hc         1 RN6       0.043200
     68 H9           2.2560     1.5170    -1.1830 hc         1 RN6       0.043200
     69 H10          3.4500     0.0160     0.4040 h1         1 RN6       0.055700
     70 H11          3.6530    -1.1820    -0.8650 h1         1 RN6       0.055700
     71 H12          6.8450     2.4380    -0.6390 h1         1 RN6       0.052200
     72 H13          6.9530     1.4460    -2.1010 h1         1 RN6       0.052200
     73 H14          8.4920     3.2160    -2.0000 ha         1 RN6       0.121000
     74 H15         10.5890     4.3150    -2.4670 ha         1 RN6       0.122000
     75 H16         12.7580     3.3850    -1.6570 ha         1 RN6       0.144000
     76 H17         12.2500    -1.7790     1.7280 h1         1 RN6       0.103700
     77 H18         15.3090    -3.6330     0.6760 hc         1 RN6       0.082200
     78 H19         13.9120    -3.7090     1.7310 hc         1 RN6       0.082200
     79 H20         13.2560    -2.5740    -0.3470 hc         1 RN6       0.071700
     80 H21         14.5890    -1.4360    -0.2030 hc         1 RN6       0.071700
     81 H22        -10.3100    -0.8340    -2.9780 h1         1 RN6       0.125700
     82 H23         -8.5210     2.5790    -1.5770 ha         1 RN6       0.132500
     83 H24         -8.2590     4.8670    -0.7020 ha         1 RN6       0.132500
     84 H25         -9.1120     3.4410     3.2530 ha         1 RN6       0.132500
     85 H26         -9.3500     1.1610     2.3800 ha         1 RN6       0.132500
     86 H27         -6.5110    -3.4990     3.3930 hc         1 RN6       0.052033
     87 H28         -5.3770    -2.5750     2.4200 hc         1 RN6       0.052033
     88 H29         -6.1730    -1.8210     3.7980 hc         1 RN6       0.052033
     89 H30         -8.2440    -2.3840    -1.3690 hc         1 RN6       0.070200
     90 H31         -8.7780    -2.5850    -3.0220 hc         1 RN6       0.070200
     91 H32         -6.5660     0.8750     2.1950 hc         1 RN6       0.051700
     92 H33         -5.4530    -0.3210     1.5500 hc         1 RN6       0.051700
     93 H34         -6.3840     0.6960     0.4590 hc         1 RN6       0.051700
     94 H35         -5.3310     0.8970    -2.0950 h1         1 RN6       0.053200
     95 H36         -5.0150    -0.1790    -3.4480 h1         1 RN6       0.053200
     96 H37         -4.1090    -0.6610    -0.5670 hc         1 RN6       0.041700
     97 H38         -3.8110    -1.7480    -1.9150 hc         1 RN6       0.041700
     98 H39         -2.5300     0.0580    -3.0780 hc         1 RN6       0.043700
     99 H40         -2.8230     1.1400    -1.7320 hc         1 RN6       0.043700
    100 H41         -1.3370    -1.5220    -1.5280 hc         1 RN6       0.038700
    101 H42         -1.5910    -0.4010    -0.2070 hc         1 RN6       0.038700
    102 H43         -6.2880    -1.5620    -1.2530 hn         1 RN6       0.312500
    103 H44          4.7330     1.0870    -1.9730 hn         1 RN6       0.310500
    104 H45         15.3860    -0.7030     3.5630 hn         1 RN6       0.332500
@<TRIPOS>BOND
     1     1     4 2   
     2     1    45 1   
     3     2     4 1   
     4     2    60 1   
     5     2    61 1   
     6     2    62 1   
     7     3    10 1   
     8     3    11 1   
     9     4    51 1   
    10     5     6 1   
    11     5    44 1   
    12     5    63 1   
    13     5    64 1   
    14     6     7 1   
    15     6    65 1   
    16     6    66 1   
    17     7     8 1   
    18     7    67 1   
    19     7    68 1   
    20     8    47 1   
    21     8    69 1   
    22     8    70 1   
    23     9    10 1   
    24     9    47 1   
    25     9    56 2   
    26    10    71 1   
    27    10    72 1   
    28    11    12 ar  
    29    11    23 ar  
    30    12    13 ar  
    31    12    73 1   
    32    13    14 ar  
    33    13    74 1   
    34    14    16 ar  
    35    14    75 1   
    36    15    26 1   
    37    15    45 2   
    38    15    51 1   
    39    16    17 1   
    40    16    23 ar  
    41    17    48 1   
    42    17    54 2   
    43    18    19 1   
    44    18    22 1   
    45    18    48 1   
    46    18    76 1   
    47    19    49 1   
    48    19    53 2   
    49    20    21 1   
    50    20    49 1   
    51    20    52 2   
    52    21    22 1   
    53    21    77 1   
    54    21    78 1   
    55    22    79 1   
    56    22    80 1   
    57    23    24 1   
    58    24    48 1   
    59    24    55 2   
    60    25    27 1   
    61    25    33 1   
    62    25    50 2   
    63    26    37 1   
    64    26    50 1   
    65    26    81 1   
    66    27    28 ar  
    67    27    32 ar  
    68    28    29 ar  
    69    28    82 1   
    70    29    30 ar  
    71    29    83 1   
    72    30    31 ar  
    73    30    59 1   
    74    31    32 ar  
    75    31    84 1   
    76    32    85 1   
    77    33    34 2   
    78    33    38 1   
    79    34    51 1   
    80    34    58 1   
    81    35    36 1   
    82    35    38 2   
    83    35    58 1   
    84    36    86 1   
    85    36    87 1   
    86    36    88 1   
    87    37    40 1   
    88    37    89 1   
    89    37    90 1   
    90    38    39 1   
    91    39    91 1   
    92    39    92 1   
    93    39    93 1   
    94    40    46 1   
    95    40    57 2   
    96    41    42 1   
    97    41    46 1   
    98    41    94 1   
    99    41    95 1   
   100    42    43 1   
   101    42    96 1   
   102    42    97 1   
   103    43    44 1   
   104    43    98 1   
   105    43    99 1   
   106    44   100 1   
   107    44   101 1   
   108    46   102 1   
   109    47   103 1   
   110    49   104 1   
@<TRIPOS>SUBSTRUCTURE
     1 RN6         1 TEMP              0 ****  ****    0 ROOT
