@<TRIPOS>MOLECULE
RN6
  104   110     1     0     0
SMALL
No Charge or Current Charge


@<TRIPOS>ATOM
      1 N          -12.0070    -0.2290    -0.0830 nc         1 RN6      -0.348000
      2 C          -12.0340    -1.3280     2.1540 c3         1 RN6      -0.129400
      3 O            7.5250     2.0660    -1.1800 os         1 RN6      -0.282100
      4 C1         -11.3570    -0.8340     0.9030 cd         1 RN6       0.408800
      5 C10         -0.1810     0.6950    -2.5520 c3         1 RN6      -0.074400
      6 C11          0.5130     1.9540    -1.9900 c3         1 RN6      -0.072400
      7 C12          2.0210     2.0110    -2.3160 c3         1 RN6      -0.094400
      8 C13          2.7060     3.2760    -1.7630 c3         1 RN6       0.106000
      9 C14          5.1120     2.6100    -1.3970 c          1 RN6       0.600100
     10 C15          6.5430     2.7980    -1.9490 c3         1 RN6       0.070600
     11 C16          8.8680     2.0930    -1.4900 ca         1 RN6       0.209100
     12 C17          9.3920     2.8240    -2.5870 ca         1 RN6      -0.196000
     13 C18         10.7820     2.8190    -2.8610 ca         1 RN6      -0.053000
     14 C19         11.6720     2.0860    -2.0490 ca         1 RN6      -0.085000
     15 C2          -9.8690    -0.1970    -0.5900 cd         1 RN6       0.380800
     16 C20         11.1360     1.3700    -0.9690 ca         1 RN6      -0.096600
     17 C21         11.8170     0.5180     0.0460 c          1 RN6       0.590600
     18 C22         11.0230    -0.8130     2.0750 c6         1 RN6       0.039700
     19 C23         12.2040    -0.3890     2.9970 c          1 RN6       0.571000
     20 C24         12.6320    -2.7220     3.6740 c          1 RN6       0.580000
     21 C25         11.4120    -3.2110     2.8860 c6         1 RN6      -0.163400
     22 C26         11.0570    -2.3110     1.6780 c6         1 RN6      -0.085400
     23 C27          9.7730     1.3740    -0.7000 ca         1 RN6      -0.186600
     24 C28          9.5360     0.5260     0.5010 c          1 RN6       0.604600
     25 C29         -7.1330    -0.2140     0.5320 ce         1 RN6       0.551500
     26 C3          -8.5950    -0.0910    -1.4270 c3         1 RN6       0.109200
     27 C30         -6.2780     0.5500     1.5070 ca         1 RN6      -0.139900
     28 C31         -5.5940     1.7230     1.1040 ca         1 RN6      -0.068000
     29 C32         -4.8010     2.4400     2.0160 ca         1 RN6      -0.114500
     30 C33         -4.6860     2.0040     3.3430 ca         1 RN6       0.132000
     31 C34         -5.3680     0.8530     3.7630 ca         1 RN6      -0.114500
     32 C35         -6.1620     0.1320     2.8540 ca         1 RN6      -0.068000
     33 C36         -7.7550    -1.4780     0.9510 cc         1 RN6      -0.206900
     34 C37         -9.0990    -1.7130     1.0960 cd         1 RN6      -0.123200
     35 C38         -7.8230    -3.7540     1.5590 cd         1 RN6      -0.211300
     36 C39         -7.3780    -5.1540     1.9010 c3         1 RN6      -0.022800
     37 C4          -8.3130    -1.3770    -2.2510 c3         1 RN6      -0.174400
     38 C40         -7.0210    -2.6840     1.2120 cc         1 RN6      -0.069300
     39 C41         -5.5140    -2.7390     1.1040 c3         1 RN6      -0.035800
     40 C5          -6.9980    -1.2680    -3.0170 c          1 RN6       0.601100
     41 C6          -4.5790    -1.9590    -2.9480 c3         1 RN6       0.104000
     42 C7          -3.8770    -0.7000    -2.3970 c3         1 RN6      -0.095400
     43 C8          -2.3810    -0.6280    -2.7710 c3         1 RN6      -0.073400
     44 C9          -1.6840     0.6290    -2.2060 c3         1 RN6      -0.074400
     45 N1         -11.0710     0.1500    -1.0390 nc         1 RN6      -0.328000
     46 N2          -5.9710    -2.0290    -2.5050 ns         1 RN6      -0.509900
     47 N3           4.1370     3.3120    -2.0790 ns         1 RN6      -0.513900
     48 N4          10.7960     0.0520     0.8800 n          1 RN6      -0.389400
     49 N5          12.8890    -1.3820     3.6420 ns         1 RN6      -0.478500
     50 N6          -7.4020     0.2940    -0.6330 n2         1 RN6      -0.557900
     51 N7         -10.0060    -0.7280     0.6740 na         1 RN6      -0.256800
     52 O1          13.3710    -3.4890     4.2670 o          1 RN6      -0.512000
     53 O2          12.4960     0.7820     3.1890 o          1 RN6      -0.502000
     54 O3          13.0090     0.2550     0.1210 o          1 RN6      -0.485000
     55 O4           8.4740     0.2860     1.0550 o          1 RN6      -0.459000
     56 O5           4.8440     1.9060    -0.4310 o          1 RN6      -0.552100
     57 O6          -6.8740    -0.5770    -4.0190 o          1 RN6      -0.589100
     58 S           -9.5510    -3.3540     1.5550 ss         1 RN6       0.251000
     59 Cl          -3.6930     2.9030     4.4820 cl         1 RN6      -0.199000
     60 H1         -12.4080    -2.3480     2.0180 hc         1 RN6       0.064700
     61 H2         -11.3450    -1.3220     3.0060 hc         1 RN6       0.064700
     62 H3         -12.8860    -0.6900     2.4140 hc         1 RN6       0.064700
     63 H4          -0.0600     0.6730    -3.6430 hc         1 RN6       0.040200
     64 H5           0.3190    -0.1990    -2.1570 hc         1 RN6       0.040200
     65 H6           0.0220     2.8480    -2.3960 hc         1 RN6       0.043700
     66 H7           0.3800     1.9830    -0.9010 hc         1 RN6       0.043700
     67 H8           2.5110     1.1210    -1.9030 hc         1 RN6       0.043200
     68 H9           2.1580     1.9770    -3.4040 hc         1 RN6       0.043200
     69 H10          2.2310     4.1680    -2.1930 h1         1 RN6       0.055700
     70 H11          2.5780     3.3200    -0.6720 h1         1 RN6       0.055700
     71 H12          6.7650     3.8720    -1.9340 h1         1 RN6       0.052200
     72 H13          6.5410     2.4620    -2.9930 h1         1 RN6       0.052200
     73 H14          8.7400     3.4010    -3.2360 ha         1 RN6       0.121000
     74 H15         11.1680     3.3850    -3.7060 ha         1 RN6       0.122000
     75 H16         12.7410     2.0770    -2.2530 ha         1 RN6       0.144000
     76 H17         10.1560    -0.6940     2.7400 h1         1 RN6       0.103700
     77 H18         11.5330    -4.2690     2.6210 hc         1 RN6       0.082200
     78 H19         10.5670    -3.1520     3.5860 hc         1 RN6       0.082200
     79 H20         10.0920    -2.6130     1.2460 hc         1 RN6       0.071700
     80 H21         11.8100    -2.4600     0.8900 hc         1 RN6       0.071700
     81 H22         -8.7870     0.7090    -2.1550 h1         1 RN6       0.125700
     82 H23         -5.6650     2.0820     0.0790 ha         1 RN6       0.132500
     83 H24         -4.2750     3.3350     1.6930 ha         1 RN6       0.132500
     84 H25         -5.2840     0.5200     4.7950 ha         1 RN6       0.132500
     85 H26         -6.6890    -0.7510     3.2110 ha         1 RN6       0.132500
     86 H27         -8.2080    -5.7570     2.2880 hc         1 RN6       0.052033
     87 H28         -6.9790    -5.6660     1.0170 hc         1 RN6       0.052033
     88 H29         -6.5920    -5.1430     2.6660 hc         1 RN6       0.052033
     89 H30         -8.2820    -2.2400    -1.5780 hc         1 RN6       0.070200
     90 H31         -9.1300    -1.5070    -2.9700 hc         1 RN6       0.070200
     91 H32         -5.0500    -2.5970     2.0870 hc         1 RN6       0.051700
     92 H33         -5.1820    -3.7090     0.7160 hc         1 RN6       0.051700
     93 H34         -5.1180    -1.9710     0.4320 hc         1 RN6       0.051700
     94 H35         -4.5460    -1.9570    -4.0450 h1         1 RN6       0.053200
     95 H36         -4.0560    -2.8570    -2.5920 h1         1 RN6       0.053200
     96 H37         -4.3870     0.1940    -2.7760 hc         1 RN6       0.041700
     97 H38         -3.9740    -0.6830    -1.3050 hc         1 RN6       0.041700
     98 H39         -1.8720    -1.5240    -2.3930 hc         1 RN6       0.043700
     99 H40         -2.2810    -0.6380    -3.8630 hc         1 RN6       0.043700
    100 H41         -1.8030     0.6470    -1.1150 hc         1 RN6       0.038700
    101 H42         -2.1840     1.5240    -2.5970 hc         1 RN6       0.038700
    102 H43         -6.1870    -2.5810    -1.6840 hn         1 RN6       0.312500
    103 H44          4.4420     3.8760    -2.8650 hn         1 RN6       0.310500
    104 H45         13.6760    -1.0790     4.1960 hn         1 RN6       0.332500
@<TRIPOS>BOND
     1     1     4 2   
     2     1    45 1   
     3     2     4 1   
     4     2    60 1   
     5     2    61 1   
     6     2    62 1   
     7     3    10 1   
     8     3    11 1   
     9     4    51 1   
    10     5     6 1   
    11     5    44 1   
    12     5    63 1   
    13     5    64 1   
    14     6     7 1   
    15     6    65 1   
    16     6    66 1   
    17     7     8 1   
    18     7    67 1   
    19     7    68 1   
    20     8    47 1   
    21     8    69 1   
    22     8    70 1   
    23     9    10 1   
    24     9    47 1   
    25     9    56 2   
    26    10    71 1   
    27    10    72 1   
    28    11    12 ar  
    29    11    23 ar  
    30    12    13 ar  
    31    12    73 1   
    32    13    14 ar  
    33    13    74 1   
    34    14    16 ar  
    35    14    75 1   
    36    15    26 1   
    37    15    45 2   
    38    15    51 1   
    39    16    17 1   
    40    16    23 ar  
    41    17    48 1   
    42    17    54 2   
    43    18    19 1   
    44    18    22 1   
    45    18    48 1   
    46    18    76 1   
    47    19    49 1   
    48    19    53 2   
    49    20    21 1   
    50    20    49 1   
    51    20    52 2   
    52    21    22 1   
    53    21    77 1   
    54    21    78 1   
    55    22    79 1   
    56    22    80 1   
    57    23    24 1   
    58    24    48 1   
    59    24    55 2   
    60    25    27 1   
    61    25    33 1   
    62    25    50 2   
    63    26    37 1   
    64    26    50 1   
    65    26    81 1   
    66    27    28 ar  
    67    27    32 ar  
    68    28    29 ar  
    69    28    82 1   
    70    29    30 ar  
    71    29    83 1   
    72    30    31 ar  
    73    30    59 1   
    74    31    32 ar  
    75    31    84 1   
    76    32    85 1   
    77    33    34 2   
    78    33    38 1   
    79    34    51 1   
    80    34    58 1   
    81    35    36 1   
    82    35    38 2   
    83    35    58 1   
    84    36    86 1   
    85    36    87 1   
    86    36    88 1   
    87    37    40 1   
    88    37    89 1   
    89    37    90 1   
    90    38    39 1   
    91    39    91 1   
    92    39    92 1   
    93    39    93 1   
    94    40    46 1   
    95    40    57 2   
    96    41    42 1   
    97    41    46 1   
    98    41    94 1   
    99    41    95 1   
   100    42    43 1   
   101    42    96 1   
   102    42    97 1   
   103    43    44 1   
   104    43    98 1   
   105    43    99 1   
   106    44   100 1   
   107    44   101 1   
   108    46   102 1   
   109    47   103 1   
   110    49   104 1   
@<TRIPOS>SUBSTRUCTURE
     1 RN6         1 TEMP              0 ****  ****    0 ROOT
