@<TRIPOS>MOLECULE
RN7
   52    55     1     0     0
SMALL
abcg2


@<TRIPOS>ATOM
      1 C26         22.0910   -14.4770    34.1060 c6         1 RN7      -0.071400
      2 C25         20.7170   -14.8880    33.5940 c6         1 RN7      -0.071400
      3 C22         20.9390   -12.4590    35.0520 cc         1 RN7      -0.026400
      4 C23         20.0530   -12.5520    34.0290 cd         1 RN7      -0.085600
      5 C24         19.9610   -13.6770    33.0520 c6         1 RN7      -0.006200
      6 N18         19.2840    -9.3140    35.8440 nb         1 RN7      -0.172000
      7 C15         20.2070   -13.8680    39.4230 c6         1 RN7       0.151100
      8 C13         18.6040   -13.1460    37.8770 c6         1 RN7       0.151100
      9 C12         18.0010   -12.5150    39.1300 c6         1 RN7       0.133800
     10 C16         20.0810   -12.6290    40.3090 c6         1 RN7       0.133800
     11 C06         20.4940    -7.1410    39.0010 c3         1 RN7      -0.061400
     12 C02         21.3390   -10.7670    37.0060 ca         1 RN7       0.452900
     13 C04         19.9510    -8.9500    36.9190 ca         1 RN7       0.281300
     14 N01         22.3460   -11.3880    37.6330 nv         1 RN7      -1.050900
     15 N03         20.9300    -9.6050    37.5200 nb         1 RN7      -0.326000
     16 S05         19.4160    -7.4000    37.5670 ss         1 RN7      -0.281300
     17 C07         19.9260    -7.7550    40.2700 c          1 RN7       0.608100
     18 N08         20.0600    -9.0850    40.3450 ns         1 RN7      -0.499900
     19 C09         19.5010    -9.9060    41.3910 c3         1 RN7       0.102000
     20 C10         18.4780   -10.8950    40.8500 c3         1 RN7       0.147800
     21 N11         19.0200   -11.7560    39.8220 n3         1 RN7      -0.725600
     22 O14         19.9410   -13.5620    38.0780 os         1 RN7      -0.453000
     23 O17         19.4010    -7.0600    41.1290 o          1 RN7      -0.609100
     24 C19         19.6960   -10.4740    35.3340 ca         1 RN7       0.171300
     25 S20         18.9600   -11.1970    33.9500 ss         1 RN7      -0.113900
     26 C21         20.7320   -11.2640    35.8270 ca         1 RN7      -0.227800
     27 C27         21.9860   -13.5080    35.2820 c6         1 RN7      -0.022200
     28 H1          22.6640   -15.3530    34.4140 hc         1 RN7       0.043200
     29 H2          22.6520   -14.0060    33.2930 hc         1 RN7       0.043200
     30 H3          20.1410   -15.3420    34.4060 hc         1 RN7       0.044700
     31 H4          20.8100   -15.6410    32.8110 hc         1 RN7       0.044700
     32 H5          20.3810   -13.3730    32.0880 hc         1 RN7       0.052700
     33 H6          18.9160   -13.9350    32.8620 hc         1 RN7       0.052700
     34 H8          21.2240   -14.2600    39.4760 h1         1 RN7       0.048450
     35 H9          18.6260   -12.4160    37.0660 h1         1 RN7       0.048450
     36 H10         17.9780   -13.9880    37.5550 h1         1 RN7       0.048450
     37 H11         17.1930   -11.8470    38.8250 h1         1 RN7       0.039450
     38 H12         17.5380   -13.2810    39.7750 h1         1 RN7       0.039450
     39 H13         19.8990   -12.9700    41.3410 h1         1 RN7       0.039450
     40 H14         21.0290   -12.0820    40.3210 h1         1 RN7       0.039450
     41 H15         21.4880    -7.5230    38.7690 h1         1 RN7       0.103200
     42 H16         20.5590    -6.0610    39.1240 h1         1 RN7       0.103200
     43 H17         22.6330   -11.0330    38.5310 hn         1 RN7       0.491000
     44 H18         22.5190   -12.3630    37.4690 hn         1 RN7       0.491000
     45 H19         20.4480    -9.5560    39.5360 hn         1 RN7       0.346500
     46 H20         20.3030   -10.4300    41.9180 h1         1 RN7       0.055700
     47 H21         19.0150    -9.2640    42.1230 h1         1 RN7       0.055700
     48 H22         17.6440   -10.3330    40.4220 h1         1 RN7       0.043700
     49 H23         18.0780   -11.4670    41.7040 h1         1 RN7       0.043700
     50 H25         21.7450   -14.0580    36.1970 hc         1 RN7       0.051700
     51 H26         22.9610   -13.0390    35.4470 hc         1 RN7       0.051700
     52 H7          19.5420   -14.6640    39.7840 h1         1 RN7       0.048450
@<TRIPOS>BOND
     1     1     2 1   
     2     1    27 1   
     3     1    28 1   
     4     1    29 1   
     5     2     5 1   
     6     2    30 1   
     7     2    31 1   
     8     3     4 2   
     9     3    26 1   
    10     3    27 1   
    11     4     5 1   
    12     4    25 1   
    13     5    32 1   
    14     5    33 1   
    15     6    13 ar  
    16     6    24 ar  
    17     7    10 1   
    18     7    22 1   
    19     7    34 1   
    20     7    52 1   
    21     8     9 1   
    22     8    22 1   
    23     8    35 1   
    24     8    36 1   
    25     9    21 1   
    26     9    37 1   
    27     9    38 1   
    28    10    21 1   
    29    10    39 1   
    30    10    40 1   
    31    11    16 1   
    32    11    17 1   
    33    11    41 1   
    34    11    42 1   
    35    12    14 1   
    36    12    15 ar  
    37    12    26 ar  
    38    13    15 ar  
    39    13    16 1   
    40    14    43 1   
    41    14    44 1   
    42    17    18 1   
    43    17    23 2   
    44    18    19 1   
    45    18    45 1   
    46    19    20 1   
    47    19    46 1   
    48    19    47 1   
    49    20    21 1   
    50    20    48 1   
    51    20    49 1   
    52    24    25 1   
    53    24    26 ar  
    54    27    50 1   
    55    27    51 1   
@<TRIPOS>SUBSTRUCTURE
     1 RN7         1 TEMP              0 ****  ****    0 ROOT
