@<TRIPOS>MOLECULE
RN7
   52    55     1     0     0
SMALL
No Charge or Current Charge


@<TRIPOS>ATOM
      1 C26         21.5590   -14.3390    33.8970 c6         1 RN7      -0.071400
      2 C25         20.0730   -14.7100    33.7030 c6         1 RN7      -0.071400
      3 C22         20.7040   -12.2890    35.1540 cc         1 RN7      -0.026400
      4 C23         19.5740   -12.3130    34.3390 cd         1 RN7      -0.085600
      5 C24         19.2370   -13.4470    33.3930 c6         1 RN7      -0.006200
      6 N18         19.5810    -8.9570    36.1390 nb         1 RN7      -0.172000
      7 C15         21.0300   -13.6370    40.0030 c6         1 RN7       0.151100
      8 C13         19.6480   -14.0370    38.0770 c6         1 RN7       0.151100
      9 C12         18.6330   -12.9240    38.4900 c6         1 RN7       0.133800
     10 C16         19.9570   -12.6420    40.5590 c6         1 RN7       0.133800
     11 C06         20.9870    -7.1320    39.4820 c3         1 RN7      -0.061400
     12 C02         21.5960   -10.6480    36.9410 ca         1 RN7       0.452900
     13 C04         20.5150    -8.6300    37.0590 ca         1 RN7       0.281300
     14 N01         22.5500   -11.4470    37.4670 nv         1 RN7      -1.050900
     15 N03         21.5120    -9.4320    37.4980 nb         1 RN7      -0.326000
     16 S05         20.4540    -6.9630    37.7060 ss         1 RN7      -0.281300
     17 C07         19.8920    -7.7410    40.3620 c          1 RN7       0.608100
     18 N08         19.6880    -9.0900    40.2040 ns         1 RN7      -0.499900
     19 C09         18.6440    -9.8640    40.8800 c3         1 RN7       0.102000
     20 C10         18.1300   -11.0210    39.9910 c3         1 RN7       0.147800
     21 N11         19.1800   -11.9450    39.4840 n3         1 RN7      -0.725600
     22 O14         20.9800   -13.7370    38.5600 os         1 RN7      -0.453000
     23 O17         19.2370    -7.0710    41.1500 o          1 RN7      -0.609100
     24 C19         19.6970   -10.1840    35.6010 ca         1 RN7       0.171300
     25 S20         18.5720   -10.8360    34.4060 ss         1 RN7      -0.113900
     26 C21         20.7110   -11.0580    35.9340 ca         1 RN7      -0.227800
     27 C27         21.7520   -13.3900    35.1080 c6         1 RN7      -0.022200
     28 H1          22.1610   -15.2480    34.0380 hc         1 RN7       0.043200
     29 H2          21.9370   -13.8550    32.9860 hc         1 RN7       0.043200
     30 H3          19.6910   -15.1960    34.6110 hc         1 RN7       0.044700
     31 H4          19.9660   -15.4380    32.8870 hc         1 RN7       0.044700
     32 H5          19.4280   -13.1290    32.3590 hc         1 RN7       0.052700
     33 H6          18.1680   -13.6890    33.4470 hc         1 RN7       0.052700
     34 H8          22.0350   -13.3000    40.2960 h1         1 RN7       0.048450
     35 H9          19.6620   -14.1400    36.9850 h1         1 RN7       0.048450
     36 H10         19.3280   -15.0010    38.4980 h1         1 RN7       0.048450
     37 H11         18.3140   -12.3890    37.5840 h1         1 RN7       0.039450
     38 H12         17.7370   -13.4170    38.8950 h1         1 RN7       0.039450
     39 H13         19.2720   -13.2040    41.2110 h1         1 RN7       0.039450
     40 H14         20.4710   -11.9110    41.2000 h1         1 RN7       0.039450
     41 H15         21.8900    -7.7480    39.5570 h1         1 RN7       0.103200
     42 H16         21.2150    -6.1370    39.8820 h1         1 RN7       0.103200
     43 H17         23.0450   -11.0560    38.2610 hn         1 RN7       0.491000
     44 H18         22.2420   -12.4060    37.6210 hn         1 RN7       0.491000
     45 H19         20.2580    -9.5740    39.5180 hn         1 RN7       0.346500
     46 H20         19.0480   -10.2620    41.8190 h1         1 RN7       0.055700
     47 H21         17.7990    -9.2090    41.1260 h1         1 RN7       0.055700
     48 H22         17.6050   -10.5700    39.1380 h1         1 RN7       0.043700
     49 H23         17.3800   -11.5850    40.5630 h1         1 RN7       0.043700
     50 H25         21.7250   -13.9850    36.0280 hc         1 RN7       0.051700
     51 H26         22.7600   -12.9590    35.0610 hc         1 RN7       0.051700
     52 H7          20.8710   -14.6340    40.4400 h1         1 RN7       0.048450
@<TRIPOS>BOND
     1     1     2 1   
     2     1    27 1   
     3     1    28 1   
     4     1    29 1   
     5     2     5 1   
     6     2    30 1   
     7     2    31 1   
     8     3     4 2   
     9     3    26 1   
    10     3    27 1   
    11     4     5 1   
    12     4    25 1   
    13     5    32 1   
    14     5    33 1   
    15     6    13 ar  
    16     6    24 ar  
    17     7    10 1   
    18     7    22 1   
    19     7    34 1   
    20     7    52 1   
    21     8     9 1   
    22     8    22 1   
    23     8    35 1   
    24     8    36 1   
    25     9    21 1   
    26     9    37 1   
    27     9    38 1   
    28    10    21 1   
    29    10    39 1   
    30    10    40 1   
    31    11    16 1   
    32    11    17 1   
    33    11    41 1   
    34    11    42 1   
    35    12    14 1   
    36    12    15 ar  
    37    12    26 ar  
    38    13    15 ar  
    39    13    16 1   
    40    14    43 1   
    41    14    44 1   
    42    17    18 1   
    43    17    23 2   
    44    18    19 1   
    45    18    45 1   
    46    19    20 1   
    47    19    46 1   
    48    19    47 1   
    49    20    21 1   
    50    20    48 1   
    51    20    49 1   
    52    24    25 1   
    53    24    26 ar  
    54    27    50 1   
    55    27    51 1   
@<TRIPOS>SUBSTRUCTURE
     1 RN7         1 TEMP              0 ****  ****    0 ROOT
