@<TRIPOS>MOLECULE
RNA
   38    40     1     0     0
SMALL
abcg2


@<TRIPOS>ATOM
      1 C           11.4580    30.1610    73.5500 cc         1 RNA      -0.202000
      2 C1          10.3000    30.9740    73.5860 cc         1 RNA      -0.105000
      3 C2           9.5790    30.6980    72.4460 cd         1 RNA       0.128800
      4 O           10.2640    29.7430    71.7170 os         1 RNA      -0.244000
      5 C3          11.3940    29.4270    72.3950 cd         1 RNA       0.179300
      6 C4          12.2840    28.4080    71.7960 c3         1 RNA      -0.131400
      7 C5           7.4860    32.0500    72.3730 cc         1 RNA      -0.164600
      8 S            7.6240    32.9410    73.8760 ss         1 RNA      -0.156800
      9 C6           6.0900    33.7220    73.4810 cc         1 RNA       0.704100
     10 N            5.5220    34.6380    74.3150 nu         1 RNA      -0.816300
     11 S1           6.3050    35.5440    75.5020 sy         1 RNA       1.208600
     12 C7           7.3040    36.6830    74.6170 ca         1 RNA      -0.337500
     13 C8           8.6680    36.4440    74.4820 ca         1 RNA      -0.001000
     14 C9           9.4340    37.3330    73.7400 ca         1 RNA      -0.131000
     15 C10          8.8590    38.4480    73.1300 ca         1 RNA      -0.006300
     16 C11          7.4840    38.6620    73.2830 ca         1 RNA      -0.131000
     17 C12          6.7020    37.7910    74.0210 ca         1 RNA      -0.001000
     18 C13          9.6950    39.4150    72.3420 c3         1 RNA      -0.060800
     19 O14          7.1490    34.6290    76.2200 o          1 RNA      -0.521500
     20 O1           5.2320    36.2330    76.1600 o          1 RNA      -0.521500
     21 C15          6.2280    32.4190    71.6760 c          1 RNA       0.708700
     22 N1           5.5010    33.3780    72.3800 nd         1 RNA      -0.688100
     23 O2           5.8640    31.9550    70.6060 o          1 RNA      -0.494100
     24 C16          8.3580    31.1420    71.8840 cf         1 RNA      -0.120800
     25 H131         9.8990    40.3110    72.9360 hc         1 RNA       0.053700
     26 H132        10.6510    38.9740    72.0620 hc         1 RNA       0.053700
     27 H133         9.1750    39.7360    71.4390 hc         1 RNA       0.053700
     28 H11          7.0220    39.5230    72.8160 ha         1 RNA       0.123000
     29 H12          5.6400    37.9640    74.1320 ha         1 RNA       0.136500
     30 H8           9.1210    35.5840    74.9510 ha         1 RNA       0.136500
     31 H9          10.4970    37.1530    73.6320 ha         1 RNA       0.123000
     32 HN           4.6640    35.0590    73.9720 hn         1 RNA       0.525000
     33 H16          8.0830    30.6920    70.9360 ha         1 RNA       0.218000
     34 H1          10.0350    31.6750    74.3590 ha         1 RNA       0.151000
     35 H           12.2470    30.1150    74.2820 ha         1 RNA       0.147000
     36 H41         11.7610    27.4560    71.6800 hc         1 RNA       0.061700
     37 H42         12.6260    28.7220    70.8070 hc         1 RNA       0.061700
     38 H43         13.1510    28.2560    72.4360 hc         1 RNA       0.061700
@<TRIPOS>BOND
     1     1     2 1   
     2     1     5 2   
     3     1    35 1   
     4     2     3 2   
     5     2    34 1   
     6     3     4 1   
     7     3    24 1   
     8     4     5 1   
     9     5     6 1   
    10     6    36 1   
    11     6    37 1   
    12     6    38 1   
    13     7     8 1   
    14     7    21 1   
    15     7    24 2   
    16     8     9 1   
    17     9    10 1   
    18     9    22 2   
    19    10    11 1   
    20    10    32 1   
    21    11    12 1   
    22    11    19 2   
    23    11    20 2   
    24    12    13 ar  
    25    12    17 ar  
    26    13    14 ar  
    27    13    30 1   
    28    14    15 ar  
    29    14    31 1   
    30    15    16 ar  
    31    15    18 1   
    32    16    17 ar  
    33    16    28 1   
    34    17    29 1   
    35    18    25 1   
    36    18    26 1   
    37    18    27 1   
    38    21    22 1   
    39    21    23 2   
    40    24    33 1   
@<TRIPOS>SUBSTRUCTURE
     1 RNA         1 TEMP              0 ****  ****    0 ROOT
