@<TRIPOS>MOLECULE
RNA
   38    40     1     0     0
SMALL
No Charge or Current Charge


@<TRIPOS>ATOM
      1 C           11.5090    30.8430    73.2990 cc         1 RNA      -0.202000
      2 C1          10.3220    31.5900    73.4170 cc         1 RNA      -0.105000
      3 C2           9.5700    31.3020    72.3070 cd         1 RNA       0.128800
      4 O           10.2270    30.4170    71.4800 os         1 RNA      -0.244000
      5 C3          11.4120    30.1520    72.1260 cd         1 RNA       0.179300
      6 C4          12.3820    29.2020    71.4870 c3         1 RNA      -0.131400
      7 C5           7.3110    32.5340    72.5620 cc         1 RNA      -0.164600
      8 S            7.4250    33.0520    74.2340 ss         1 RNA      -0.156800
      9 C6           5.8560    33.8430    74.0400 cc         1 RNA       0.704100
     10 N            5.1850    34.5030    74.9820 nu         1 RNA      -0.816300
     11 S1           5.8670    35.7610    75.8110 sy         1 RNA       1.208600
     12 C7           7.1460    36.4180    74.7310 ca         1 RNA      -0.337500
     13 C8           8.5090    36.1780    75.0070 ca         1 RNA      -0.001000
     14 C9           9.4980    36.6720    74.1410 ca         1 RNA      -0.131000
     15 C10          9.1420    37.4100    72.9970 ca         1 RNA      -0.006300
     16 C11          7.7830    37.6570    72.7300 ca         1 RNA      -0.131000
     17 C12          6.7860    37.1660    73.5900 ca         1 RNA      -0.001000
     18 C13         10.2170    37.9430    72.0630 c3         1 RNA      -0.060800
     19 O14          6.4610    35.1380    76.9950 o          1 RNA      -0.521500
     20 O1           4.7580    36.7120    75.8940 o          1 RNA      -0.521500
     21 C15          6.0410    32.9720    71.9650 c          1 RNA       0.708700
     22 N1           5.2880    33.6940    72.8790 nd         1 RNA      -0.688100
     23 O2           5.6560    32.7580    70.8270 o          1 RNA      -0.494100
     24 C16          8.2630    31.8110    71.8850 cf         1 RNA      -0.120800
     25 H131        10.5490    38.9390    72.3790 hc         1 RNA       0.053700
     26 H132        11.0950    37.2860    72.0490 hc         1 RNA       0.053700
     27 H133         9.8490    38.0220    71.0340 hc         1 RNA       0.053700
     28 H11          7.4960    38.2310    71.8520 ha         1 RNA       0.123000
     29 H12          5.7400    37.3640    73.3620 ha         1 RNA       0.136500
     30 H8           8.8080    35.6040    75.8830 ha         1 RNA       0.136500
     31 H9          10.5460    36.4790    74.3600 ha         1 RNA       0.123000
     32 HN           4.3450    34.8980    74.5950 hn         1 RNA       0.525000
     33 H16          7.9950    31.5480    70.8600 ha         1 RNA       0.218000
     34 H1          10.0810    32.2630    74.2310 ha         1 RNA       0.151000
     35 H           12.3330    30.8320    74.0060 ha         1 RNA       0.147000
     36 H41         11.9210    28.2210    71.3280 hc         1 RNA       0.061700
     37 H42         12.7150    29.5810    70.5140 hc         1 RNA       0.061700
     38 H43         13.2690    29.0610    72.1150 hc         1 RNA       0.061700
@<TRIPOS>BOND
     1     1     2 1   
     2     1     5 2   
     3     1    35 1   
     4     2     3 2   
     5     2    34 1   
     6     3     4 1   
     7     3    24 1   
     8     4     5 1   
     9     5     6 1   
    10     6    36 1   
    11     6    37 1   
    12     6    38 1   
    13     7     8 1   
    14     7    21 1   
    15     7    24 2   
    16     8     9 1   
    17     9    10 1   
    18     9    22 2   
    19    10    11 1   
    20    10    32 1   
    21    11    12 1   
    22    11    19 2   
    23    11    20 2   
    24    12    13 ar  
    25    12    17 ar  
    26    13    14 ar  
    27    13    30 1   
    28    14    15 ar  
    29    14    31 1   
    30    15    16 ar  
    31    15    18 1   
    32    16    17 ar  
    33    16    28 1   
    34    17    29 1   
    35    18    25 1   
    36    18    26 1   
    37    18    27 1   
    38    21    22 1   
    39    21    23 2   
    40    24    33 1   
@<TRIPOS>SUBSTRUCTURE
     1 RNA         1 TEMP              0 ****  ****    0 ROOT
