@<TRIPOS>MOLECULE
RNB
   45    45     1     0     0
SMALL
bcc


@<TRIPOS>ATOM
      1 CAA         -4.1170     2.0670     1.9890 c3         1 RNB      -0.056400
      2 CAO         -5.1920     1.2390     1.3500 c2         1 RNB      -0.111400
      3 CAB         -6.5620     1.4530     1.9260 c3         1 RNB      -0.056400
      4 CAJ         -4.9980     0.3770     0.3490 c2         1 RNB      -0.175200
      5 CAL         -3.7160     0.0390    -0.3450 c3         1 RNB      -0.035200
      6 CAN         -3.2900    -1.4140    -0.0810 c3         1 RNB      -0.041200
      7 CAP         -2.0480    -1.8110    -0.8360 c2         1 RNB      -0.088400
      8 CAC         -2.2200    -1.9680    -2.3160 c3         1 RNB      -0.054900
      9 CAK         -0.9000    -1.9850    -0.1780 c2         1 RNB      -0.185200
     10 CAM          0.4470    -2.3240    -0.7520 c3         1 RNB       0.028100
     11 CAV          1.4290    -1.2060    -0.4990 ca         1 RNB      -0.249300
     12 CAS          1.4530    -0.1040    -1.3570 ca         1 RNB       0.281100
     13 OAG          0.6260    -0.1190    -2.3910 oh         1 RNB      -0.499100
     14 CAU          2.3200     0.9890    -1.1300 ca         1 RNB      -0.363600
     15 CAI          2.2730     2.1140    -2.0340 c          1 RNB       0.604500
     16 OAE          1.5340     2.1820    -3.0140 o          1 RNB      -0.578100
     17 CAQ          3.1930     0.9860    -0.0150 ca         1 RNB       0.068700
     18 CAD          4.1180     2.1400     0.2430 c3         1 RNB      -0.065800
     19 CAT          3.1420    -0.0970     0.8340 ca         1 RNB      -0.079600
     20 CL           4.1390    -0.1900     2.2500 cl         1 RNB      -0.088400
     21 CAR          2.2690    -1.1820     0.6060 ca         1 RNB       0.238100
     22 OAF          2.3040    -2.1570     1.5120 oh         1 RNB      -0.470100
     23 H1          -4.2880     3.1310     1.8030 hc         1 RNB       0.038533
     24 H2          -4.1320     1.9380     3.0740 hc         1 RNB       0.038533
     25 H3          -3.1150     1.8260     1.6400 hc         1 RNB       0.038533
     26 H4          -6.5790     1.2260     2.9950 hc         1 RNB       0.038533
     27 H5          -6.8690     2.4990     1.8290 hc         1 RNB       0.038533
     28 H6          -7.3150     0.8340     1.4370 hc         1 RNB       0.038533
     29 H7          -5.8670    -0.1680    -0.0160 ha         1 RNB       0.114000
     30 H8          -3.8530     0.1880    -1.4210 hc         1 RNB       0.047700
     31 H9          -2.9050     0.7060    -0.0460 hc         1 RNB       0.047700
     32 H10         -3.1320    -1.5420     0.9930 hc         1 RNB       0.045200
     33 H11         -4.1160    -2.0810    -0.3570 hc         1 RNB       0.045200
     34 H12         -3.0200    -2.6810    -2.5300 hc         1 RNB       0.042033
     35 H13         -2.5120    -1.0240    -2.7810 hc         1 RNB       0.042033
     36 H14         -1.3230    -2.3120    -2.8240 hc         1 RNB       0.042033
     37 H15         -0.9100    -1.8440     0.9000 ha         1 RNB       0.115000
     38 H16          0.8040    -3.2670    -0.3230 hc         1 RNB       0.052200
     39 H17          0.3890    -2.5210    -1.8210 hc         1 RNB       0.052200
     40 H18          0.7430     0.7230    -2.8920 ho         1 RNB       0.481000
     41 H19          2.9360     2.9600    -1.8160 h4         1 RNB       0.007200
     42 H20          3.5730     2.9800     0.6780 hc         1 RNB       0.057367
     43 H21          4.9100     1.8730     0.9350 hc         1 RNB       0.057367
     44 H22          4.5960     2.4940    -0.6680 hc         1 RNB       0.057367
     45 H23          1.7140    -2.8830     1.2750 ho         1 RNB       0.442000
@<TRIPOS>BOND
     1     1     2 1   
     2     1    23 1   
     3     1    24 1   
     4     1    25 1   
     5     2     3 1   
     6     2     4 2   
     7     3    26 1   
     8     3    27 1   
     9     3    28 1   
    10     4     5 1   
    11     4    29 1   
    12     5     6 1   
    13     5    30 1   
    14     5    31 1   
    15     6     7 1   
    16     6    32 1   
    17     6    33 1   
    18     7     8 1   
    19     7     9 2   
    20     8    34 1   
    21     8    35 1   
    22     8    36 1   
    23     9    10 1   
    24     9    37 1   
    25    10    11 1   
    26    10    38 1   
    27    10    39 1   
    28    11    12 ar  
    29    11    21 ar  
    30    12    13 1   
    31    12    14 ar  
    32    13    40 1   
    33    14    15 1   
    34    14    17 ar  
    35    15    16 2   
    36    15    41 1   
    37    17    18 1   
    38    17    19 ar  
    39    18    42 1   
    40    18    43 1   
    41    18    44 1   
    42    19    20 1   
    43    19    21 ar  
    44    21    22 1   
    45    22    45 1   
@<TRIPOS>SUBSTRUCTURE
     1 RNB         1 TEMP              0 ****  ****    0 ROOT
