@<TRIPOS>MOLECULE
RNB
   45    45     1     0     0
SMALL
No Charge or Current Charge


@<TRIPOS>ATOM
      1 CAA         -5.1990     2.0340     0.8580 c3         1 RNB      -0.056400
      2 CAO         -5.9030     0.7570     1.2920 c2         1 RNB      -0.111400
      3 CAB         -7.0140     1.0240     2.2920 c3         1 RNB      -0.056400
      4 CAJ         -5.6020    -0.4840     0.8640 c2         1 RNB      -0.225200
      5 CAL         -4.5390    -0.8800    -0.1450 c3         1 RNB      -0.035200
      6 CAN         -3.1630    -1.1090     0.5160 c3         1 RNB      -0.041200
      7 CAP         -2.0590    -1.4140    -0.4890 c2         1 RNB      -0.088400
      8 CAC         -2.0940    -2.8590    -0.9750 c3         1 RNB      -0.054900
      9 CAK         -1.1680    -0.4710    -0.8570 c2         1 RNB      -0.235200
     10 CAM          0.0010    -0.5810    -1.8230 c3         1 RNB       0.028100
     11 CAV          1.3300    -0.1670    -1.1650 ca         1 RNB      -0.249300
     12 CAS          2.1050     0.9000    -1.6660 ca         1 RNB       0.281100
     13 OAG          1.6560     1.5970    -2.7430 oh         1 RNB      -0.538100
     14 CAU          3.3380     1.2560    -1.0720 ca         1 RNB      -0.363600
     15 CAI          4.1480     2.4110    -1.6260 c          1 RNB       0.604500
     16 OAE          3.7890     3.0610    -2.6040 o          1 RNB      -0.578100
     17 CAQ          3.8140     0.5230     0.0490 ca         1 RNB       0.068700
     18 CAD          5.1550     0.8960     0.6970 c3         1 RNB      -0.065800
     19 CAT          3.0360    -0.5480     0.5550 ca         1 RNB       0.012000
     20 Cl           3.5650    -1.4980     1.9610 cl         1 RNB      -0.180000
     21 CAR          1.8080    -0.8800    -0.0490 ca         1 RNB       0.238100
     22 OAF          1.0580    -1.9030     0.4560 oh         1 RNB      -0.509100
     23 H1          -5.8920     2.7070     0.3410 hc         1 RNB       0.038533
     24 H2          -4.7990     2.5730     1.7250 hc         1 RNB       0.038533
     25 H3          -4.3570     1.8500     0.1830 hc         1 RNB       0.038533
     26 H4          -6.6230     1.5000     3.1990 hc         1 RNB       0.038533
     27 H5          -7.7770     1.6870     1.8670 hc         1 RNB       0.038533
     28 H6          -7.5180     0.0990     2.5980 hc         1 RNB       0.038533
     29 H7          -6.1680    -1.3360     1.2450 ha         1 RNB       0.164000
     30 H8          -4.8530    -1.7930    -0.6650 hc         1 RNB       0.047700
     31 H9          -4.4380    -0.1150    -0.9240 hc         1 RNB       0.047700
     32 H10         -2.9080    -0.2060     1.0840 hc         1 RNB       0.045200
     33 H11         -3.2420    -1.9130     1.2580 hc         1 RNB       0.045200
     34 H12         -2.0180    -3.5580    -0.1330 hc         1 RNB       0.042033
     35 H13         -3.0320    -3.0770    -1.4980 hc         1 RNB       0.042033
     36 H14         -1.2850    -3.1090    -1.6670 hc         1 RNB       0.042033
     37 H15         -1.2580     0.5320    -0.4360 ha         1 RNB       0.165000
     38 H16          0.1110    -1.5920    -2.2290 hc         1 RNB       0.052200
     39 H17         -0.2320     0.0320    -2.7010 hc         1 RNB       0.052200
     40 H18          2.3460     2.2860    -2.9240 ho         1 RNB       0.520000
     41 H19          5.1010     2.6690    -1.1180 h4         1 RNB       0.007200
     42 H20          5.1280     1.9190     1.0890 hc         1 RNB       0.057367
     43 H21          5.4450     0.2540     1.5340 hc         1 RNB       0.057367
     44 H22          5.9720     0.8320    -0.0310 hc         1 RNB       0.057367
     45 H23          0.1680    -1.8210     0.0530 ho         1 RNB       0.481000
@<TRIPOS>BOND
     1     1     2 1   
     2     1    23 1   
     3     1    24 1   
     4     1    25 1   
     5     2     3 1   
     6     2     4 2   
     7     3    26 1   
     8     3    27 1   
     9     3    28 1   
    10     4     5 1   
    11     4    29 1   
    12     5     6 1   
    13     5    30 1   
    14     5    31 1   
    15     6     7 1   
    16     6    32 1   
    17     6    33 1   
    18     7     8 1   
    19     7     9 2   
    20     8    34 1   
    21     8    35 1   
    22     8    36 1   
    23     9    10 1   
    24     9    37 1   
    25    10    11 1   
    26    10    38 1   
    27    10    39 1   
    28    11    12 ar  
    29    11    21 ar  
    30    12    13 1   
    31    12    14 ar  
    32    13    40 1   
    33    14    15 1   
    34    14    17 ar  
    35    15    16 2   
    36    15    41 1   
    37    17    18 1   
    38    17    19 ar  
    39    18    42 1   
    40    18    43 1   
    41    18    44 1   
    42    19    20 1   
    43    19    21 ar  
    44    21    22 1   
    45    22    45 1   
@<TRIPOS>SUBSTRUCTURE
     1 RNB         1 TEMP              0 ****  ****    0 ROOT
