@<TRIPOS>MOLECULE
RNC
   32    34     1     0     0
SMALL
No Charge or Current Charge


@<TRIPOS>ATOM
      1 C18        -41.5820   -29.5400     1.1260 cc         1 RNC       0.720300
      2 C15        -43.4690   -30.2850     1.4060 cd         1 RNC       0.593300
      3 C14        -46.1190   -30.4510     1.6110 cy         1 RNC       0.130000
      4 C13        -44.6830   -30.8220     2.1030 cy         1 RNC      -0.159000
      5 C12        -45.1360   -30.2390     3.4810 cy         1 RNC       0.130000
      6 C01        -53.1380   -28.6500     6.1210 c3         1 RNC       0.225100
      7 C03        -51.0040   -29.7360     5.1740 ca         1 RNC       0.588900
      8 C04        -50.2130   -30.8960     4.9000 ca         1 RNC       0.213900
      9 C06        -48.5720   -29.5610     3.9520 ca         1 RNC       0.162500
     10 C07        -49.3780   -28.4190     4.2350 ca         1 RNC       0.407900
     11 N05        -48.9970   -30.8270     4.2900 nb         1 RNC      -0.591000
     12 N08        -50.5960   -28.4950     4.8460 nb         1 RNC      -0.732000
     13 N11        -46.5300   -30.5900     3.0480 nj         1 RNC      -0.405800
     14 N16        -43.4090   -30.1250     0.0890 nc         1 RNC      -0.365300
     15 N20        -42.3400   -29.9320     2.1080 nd         1 RNC      -0.735000
     16 O17        -42.1080   -29.6080    -0.1200 os         1 RNC      -0.173700
     17 O19        -40.3370   -29.0750     1.1850 oh         1 RNC      -0.592300
     18 H142       -46.1880   -29.4590     1.1470 h1         1 RNC       0.070700
     19 H141       -46.5740   -31.2030     0.9560 h1         1 RNC       0.070700
     20 H131       -44.5190   -31.9040     2.1400 hc         1 RNC       0.092700
     21 H122       -44.7910   -30.8190     4.3440 h1         1 RNC       0.070700
     22 H121       -44.8870   -29.1790     3.6180 h1         1 RNC       0.070700
     23 H013       -54.0550   -29.0070     6.6100 h1         1 RNC       0.046033
     24 H011       -52.6370   -27.9470     6.8000 h1         1 RNC       0.046033
     25 H012       -53.4250   -28.1090     5.2090 h1         1 RNC       0.046033
     26 H041       -50.5640   -31.8900     5.1740 h4         1 RNC       0.023100
     27 H071       -49.0470   -27.4150     3.9700 h4         1 RNC       0.051100
     28 H021       -52.5700   -30.7200     6.0490 hn         1 RNC       0.499000
     29 H191       -40.1250   -28.8960     0.2480 ho         1 RNC       0.507000
     30 C09        -47.2230   -29.3460     3.2620 c          1 RNC       0.540600
     31 N02        -52.2490   -29.7840     5.7950 nu         1 RNC      -0.930100
     32 O10        -46.9040   -28.1880     2.9830 o          1 RNC      -0.620100
@<TRIPOS>BOND
     1     1    15 2   
     2     1    16 1   
     3     1    17 1   
     4     2     4 1   
     5     2    14 2   
     6     2    15 1   
     7     3     4 1   
     8     3    13 1   
     9     3    18 1   
    10     3    19 1   
    11     4     5 1   
    12     4    20 1   
    13     5    13 1   
    14     5    21 1   
    15     5    22 1   
    16     6    23 1   
    17     6    24 1   
    18     6    25 1   
    19     6    31 1   
    20     7     8 ar  
    21     7    12 ar  
    22     7    31 1   
    23     8    11 ar  
    24     8    26 1   
    25     9    10 ar  
    26     9    11 ar  
    27     9    30 1   
    28    10    12 ar  
    29    10    27 1   
    30    13    30 1   
    31    14    16 1   
    32    17    29 1   
    33    28    31 1   
    34    30    32 2   
@<TRIPOS>SUBSTRUCTURE
     1 RNC         1 TEMP              0 ****  ****    0 ROOT
