@<TRIPOS>MOLECULE
RNC
   32    34     1     0     0
SMALL
abcg2


@<TRIPOS>ATOM
      1 C18        -42.3810   -29.2200     2.5930 cc         1 RNC       0.720300
      2 C15        -43.7890   -30.5260     1.7940 cd         1 RNC       0.593300
      3 C14        -46.0070   -30.1370     0.5610 cy         1 RNC       0.130000
      4 C13        -45.0930   -31.0930     1.3840 cy         1 RNC      -0.159000
      5 C12        -46.1910   -31.0920     2.4890 cy         1 RNC       0.130000
      6 C01        -51.9580   -28.5680     6.8720 c3         1 RNC       0.225100
      7 C03        -50.2650   -29.5000     5.3430 ca         1 RNC       0.588900
      8 C04        -49.3090   -30.5100     5.0270 ca         1 RNC       0.213900
      9 C06        -48.7960   -29.4330     3.0830 ca         1 RNC       0.162500
     10 C07        -49.7300   -28.4530     3.3900 ca         1 RNC       0.407900
     11 N05        -48.5990   -30.4680     3.9290 nb         1 RNC      -0.591000
     12 N08        -50.4600   -28.4710     4.5040 nb         1 RNC      -0.732000
     13 N11        -46.9880   -30.1890     1.6450 nj         1 RNC      -0.405800
     14 N16        -42.6660   -31.1590     1.5950 nc         1 RNC      -0.365300
     15 N20        -43.6640   -29.3050     2.4160 nd         1 RNC      -0.735000
     16 O17        -41.6910   -30.2670     2.1420 os         1 RNC      -0.173700
     17 O19        -41.7490   -28.2210     3.1610 oh         1 RNC      -0.592300
     18 H142       -45.6030   -29.1380     0.3930 h1         1 RNC       0.070700
     19 H141       -46.3660   -30.5530    -0.3800 h1         1 RNC       0.070700
     20 H131       -44.9400   -32.0630     0.9190 hc         1 RNC       0.092700
     21 H122       -46.6570   -32.0590     2.6600 h1         1 RNC       0.070700
     22 H121       -45.8900   -30.6550     3.4390 h1         1 RNC       0.070700
     23 H013       -52.3640   -28.8560     7.8390 h1         1 RNC       0.046033
     24 H011       -51.5010   -27.5800     6.9560 h1         1 RNC       0.046033
     25 H012       -52.7720   -28.5060     6.1470 h1         1 RNC       0.046033
     26 H041       -49.1560   -31.3410     5.7090 h4         1 RNC       0.023100
     27 H071       -49.8880   -27.6250     2.7110 h4         1 RNC       0.051100
     28 H021       -50.8080   -30.3380     7.1000 hn         1 RNC       0.499000
     29 H191       -40.7900   -28.3760     3.1890 ho         1 RNC       0.507000
     30 C09        -48.0160   -29.3430     1.8220 c          1 RNC       0.540600
     31 N02        -50.9810   -29.5650     6.4790 nu         1 RNC      -0.930100
     32 O10        -48.3010   -28.5090     0.9490 o          1 RNC      -0.620100
@<TRIPOS>BOND
     1     1    15 2   
     2     1    16 1   
     3     1    17 1   
     4     2     4 1   
     5     2    14 2   
     6     2    15 1   
     7     3     4 1   
     8     3    13 1   
     9     3    18 1   
    10     3    19 1   
    11     4     5 1   
    12     4    20 1   
    13     5    13 1   
    14     5    21 1   
    15     5    22 1   
    16     6    23 1   
    17     6    24 1   
    18     6    25 1   
    19     6    31 1   
    20     7     8 ar  
    21     7    12 ar  
    22     7    31 1   
    23     8    11 ar  
    24     8    26 1   
    25     9    10 ar  
    26     9    11 ar  
    27     9    30 1   
    28    10    12 ar  
    29    10    27 1   
    30    13    30 1   
    31    14    16 1   
    32    17    29 1   
    33    28    31 1   
    34    30    32 2   
@<TRIPOS>SUBSTRUCTURE
     1 RNC         1 TEMP              0 ****  ****    0 ROOT
