@<TRIPOS>MOLECULE
RND
   60    64     1     0     0
SMALL
No Charge or Current Charge


@<TRIPOS>ATOM
      1 C01         -6.2910     0.4530    -0.2980 ca         1 RND      -0.046000
      2 C02         -7.5200     0.5720     0.3840 ca         1 RND      -0.148000
      3 C03         -8.0860    -0.5490     1.0380 ca         1 RND      -0.089000
      4 C04         -7.4230    -1.7950     1.0160 ca         1 RND      -0.134000
      5 C05         -6.2030    -1.8830     0.3300 ca         1 RND      -0.050200
      6 C06         -5.6620    -0.8010    -0.3030 ca         1 RND      -0.084800
      7 N07         -5.3910    -2.9920     0.1860 na         1 RND      -0.224700
      8 C08         -4.4230    -1.2140    -0.9010 cc         1 RND      -0.144400
      9 C09         -4.2810    -2.5630    -0.5850 cd         1 RND      -0.161100
     10 C10         -3.4800    -0.3560    -1.7120 c3         1 RND       0.251000
     11 N11         -2.9200     0.7890    -0.9550 n3         1 RND      -0.725600
     12 C12         -2.1390     1.7050    -1.8270 c6         1 RND       0.170800
     13 C13         -1.6600     2.9560    -1.0510 c6         1 RND      -0.093900
     14 C14         -0.8400     2.5820     0.2080 c6         1 RND       0.119700
     15 C15         -1.6670     1.5910     1.0630 c6         1 RND      -0.093900
     16 C16         -2.1340     0.3680     0.2380 c6         1 RND       0.170800
     17 N17          0.4610     2.0060    -0.1660 ns         1 RND      -0.509900
     18 C18          1.5770     1.9520     0.6420 c          1 RND       0.604100
     19 C19          2.8330     1.2520     0.0050 c3         1 RND       0.089500
     20 O20          1.5830     2.4350     1.7690 o          1 RND      -0.601100
     21 C21          3.1640    -0.0650     0.7530 c3         1 RND      -0.041200
     22 N22          4.0590     2.1110    -0.1190 n8         1 RND      -0.984200
     23 C23          4.2710    -0.8660     0.1120 cc         1 RND      -0.150400
     24 N24          5.4160    -2.3280    -1.2390 na         1 RND      -0.220700
     25 C25          4.1390    -1.8240    -0.8900 cd         1 RND      -0.156100
     26 C26          5.6780    -0.7850     0.3940 ca         1 RND      -0.100800
     27 C27          6.3200    -1.6660    -0.4310 ca         1 RND      -0.047200
     28 C28          7.7130    -1.8230    -0.3940 ca         1 RND      -0.127000
     29 C29          8.4470    -1.0440     0.5260 ca         1 RND      -0.089000
     30 C30          7.7810    -0.1370     1.3840 ca         1 RND      -0.136000
     31 C31          6.3770    -0.0010     1.3250 ca         1 RND      -0.067000
     32 H1          -5.8410     1.3060    -0.8010 ha         1 RND       0.128000
     33 H2          -8.0350     1.5300     0.4070 ha         1 RND       0.110000
     34 H3          -9.0340    -0.4490     1.5620 ha         1 RND       0.108000
     35 H4          -7.8490    -2.6610     1.5180 ha         1 RND       0.111000
     36 H5          -5.5560    -3.9240     0.5560 hn         1 RND       0.349000
     37 H6          -3.4760    -3.2430    -0.8520 h4         1 RND       0.209000
     38 H7          -2.6650    -0.9880    -2.0910 h1         1 RND       0.030700
     39 H8          -4.0330     0.0130    -2.5860 h1         1 RND       0.030700
     40 H10         -1.2680     1.1790    -2.2460 h1         1 RND       0.029200
     41 H11         -2.7540     2.0350    -2.6770 h1         1 RND       0.029200
     42 H12         -1.0650     3.6010    -1.7120 hc         1 RND       0.059950
     43 H13         -2.5350     3.5470    -0.7510 hc         1 RND       0.059950
     44 H14         -0.6540     3.4950     0.7940 h1         1 RND       0.075700
     45 H15         -1.0810     1.2540     1.9280 hc         1 RND       0.059950
     46 H16         -2.5470     2.1060     1.4690 hc         1 RND       0.059950
     47 H17         -2.7400    -0.2750     0.8930 h1         1 RND       0.029200
     48 H18         -1.2580    -0.2210    -0.0710 h1         1 RND       0.029200
     49 H19          0.5540     1.5990    -1.0890 hn         1 RND       0.308500
     50 H20          2.5470     0.9670    -1.0170 h1         1 RND       0.059700
     51 H21          3.4220     0.1620     1.7950 hc         1 RND       0.054700
     52 H22          2.2560    -0.6790     0.7960 hc         1 RND       0.054700
     53 H23          4.3030     2.4730     0.8110 hn         1 RND       0.410500
     54 H24          4.8480     1.4930    -0.3440 hn         1 RND       0.410500
     55 H26          5.6250    -3.0330    -1.9400 hn         1 RND       0.351000
     56 H27          3.2350    -2.1750    -1.3810 h4         1 RND       0.210000
     57 H28          8.2150    -2.5260    -1.0540 ha         1 RND       0.113000
     58 H29          9.5290    -1.1440     0.5780 ha         1 RND       0.112000
     59 H30          8.3530     0.4560     2.0930 ha         1 RND       0.114000
     60 H31          5.8580     0.6880     1.9860 ha         1 RND       0.116000
@<TRIPOS>BOND
     1     1     2 ar  
     2     1     6 ar  
     3     1    32 1   
     4     2     3 ar  
     5     2    33 1   
     6     3     4 ar  
     7     3    34 1   
     8     4     5 ar  
     9     4    35 1   
    10     5     6 ar  
    11     5     7 1   
    12     6     8 1   
    13     7     9 1   
    14     7    36 1   
    15     8     9 2   
    16     8    10 1   
    17     9    37 1   
    18    10    11 1   
    19    10    38 1   
    20    10    39 1   
    21    11    12 1   
    22    11    16 1   
    23    12    13 1   
    24    12    40 1   
    25    12    41 1   
    26    13    14 1   
    27    13    42 1   
    28    13    43 1   
    29    14    15 1   
    30    14    17 1   
    31    14    44 1   
    32    15    16 1   
    33    15    45 1   
    34    15    46 1   
    35    16    47 1   
    36    16    48 1   
    37    17    18 1   
    38    17    49 1   
    39    18    19 1   
    40    18    20 2   
    41    19    21 1   
    42    19    22 1   
    43    19    50 1   
    44    21    23 1   
    45    21    51 1   
    46    21    52 1   
    47    22    53 1   
    48    22    54 1   
    49    23    25 2   
    50    23    26 1   
    51    24    25 1   
    52    24    27 1   
    53    24    55 1   
    54    25    56 1   
    55    26    27 ar  
    56    26    31 ar  
    57    27    28 ar  
    58    28    29 ar  
    59    28    57 1   
    60    29    30 ar  
    61    29    58 1   
    62    30    31 ar  
    63    30    59 1   
    64    31    60 1   
@<TRIPOS>SUBSTRUCTURE
     1 RND         1 TEMP              0 ****  ****    0 ROOT
