@<TRIPOS>MOLECULE
RND
   60    64     1     0     0
SMALL
abcg2


@<TRIPOS>ATOM
      1 C01         -5.7980     0.3800     0.0910 ca         1 RND      -0.046000
      2 C02         -6.9230     0.4850     0.8860 ca         1 RND      -0.148000
      3 C03         -7.4600    -0.6400     1.5350 ca         1 RND      -0.089000
      4 C04         -6.8840    -1.8890     1.4030 ca         1 RND      -0.134000
      5 C05         -5.7520    -1.9920     0.5950 ca         1 RND      -0.050200
      6 C06         -5.1990    -0.8750    -0.0720 ca         1 RND      -0.084800
      7 N07         -4.9810    -3.0740     0.2830 na         1 RND      -0.224700
      8 C08         -4.0590    -1.3440    -0.8030 cc         1 RND      -0.144400
      9 C09         -3.9680    -2.6820    -0.5480 cd         1 RND      -0.161100
     10 C10         -3.1740    -0.5330    -1.6890 c3         1 RND       0.251000
     11 N11         -2.7110     0.6820    -1.0440 n3         1 RND      -0.725600
     12 C12         -2.0670     1.5730    -1.9860 c6         1 RND       0.170800
     13 C13         -1.7110     2.9010    -1.3310 c6         1 RND      -0.093900
     14 C14         -0.8570     2.7150    -0.0810 c6         1 RND       0.119700
     15 C15         -1.5420     1.7080     0.8420 c6         1 RND      -0.093900
     16 C16         -1.8740     0.4190     0.1100 c6         1 RND       0.170800
     17 N17          0.4770     2.2760    -0.4620 ns         1 RND      -0.509900
     18 C18          1.5440     2.3310     0.3470 c          1 RND       0.604100
     19 C19          2.7970     1.6610    -0.2020 c3         1 RND       0.089500
     20 O20          1.5180     2.8260     1.4660 o          1 RND      -0.601100
     21 C21          2.7170     0.1560     0.1550 c3         1 RND      -0.041200
     22 N22          3.9650     2.3570     0.2880 n8         1 RND      -0.984200
     23 C23          3.8990    -0.6190    -0.3230 cc         1 RND      -0.150400
     24 N24          5.2660    -1.8270    -1.6280 na         1 RND      -0.220700
     25 C25          4.0350    -1.2420    -1.5330 cd         1 RND      -0.156100
     26 C26          5.1330    -0.8390     0.3730 ca         1 RND      -0.100800
     27 C27          5.9630    -1.6030    -0.4780 ca         1 RND      -0.047200
     28 C28          7.2450    -2.0030    -0.1010 ca         1 RND      -0.127000
     29 C29          7.6890    -1.6260     1.1510 ca         1 RND      -0.089000
     30 C30          6.8790    -0.8700     2.0150 ca         1 RND      -0.136000
     31 C31          5.6110    -0.4740     1.6380 ca         1 RND      -0.067000
     32 H1          -5.3700     1.2500    -0.3890 ha         1 RND       0.128000
     33 H2          -7.3970     1.4490     1.0210 ha         1 RND       0.110000
     34 H3          -8.3400    -0.5260     2.1540 ha         1 RND       0.108000
     35 H4          -7.2940    -2.7530     1.9110 ha         1 RND       0.111000
     36 H5          -5.1200    -4.0110     0.6200 hn         1 RND       0.349000
     37 H6          -3.2430    -3.3980    -0.9040 h4         1 RND       0.209000
     38 H7          -2.3380    -1.1600    -2.0460 h1         1 RND       0.030700
     39 H8          -3.7270    -0.2310    -2.5850 h1         1 RND       0.030700
     40 H10         -1.1670     1.1140    -2.4390 h1         1 RND       0.029200
     41 H11         -2.7520     1.7570    -2.8170 h1         1 RND       0.029200
     42 H12         -1.2050     3.5480    -2.0510 hc         1 RND       0.059950
     43 H13         -2.6340     3.4070    -1.0370 hc         1 RND       0.059950
     44 H14         -0.7600     3.6740     0.4340 h1         1 RND       0.075700
     45 H15         -0.9160     1.4950     1.7100 hc         1 RND       0.059950
     46 H16         -2.4690     2.1540     1.2150 hc         1 RND       0.059950
     47 H17         -2.4060    -0.2510     0.7860 h1         1 RND       0.029200
     48 H18         -0.9420    -0.1030    -0.1760 h1         1 RND       0.029200
     49 H19          0.5970     1.8590    -1.3710 hn         1 RND       0.308500
     50 H20          2.7980     1.7410    -1.2940 h1         1 RND       0.059700
     51 H21          2.6210     0.0590     1.2420 hc         1 RND       0.054700
     52 H22          1.8020    -0.2630    -0.2720 hc         1 RND       0.054700
     53 H23          4.0190     2.2780     1.2960 hn         1 RND       0.410500
     54 H24          4.7970     1.9140    -0.0810 hn         1 RND       0.410500
     55 H26          5.5910    -2.3580    -2.4180 hn         1 RND       0.351000
     56 H27          3.3290    -1.3170    -2.3460 h4         1 RND       0.210000
     57 H28          7.8680    -2.5900    -0.7640 ha         1 RND       0.113000
     58 H29          8.6790    -1.9220     1.4730 ha         1 RND       0.112000
     59 H30          7.2580    -0.5930     2.9910 ha         1 RND       0.114000
     60 H31          4.9980     0.1090     2.3140 ha         1 RND       0.116000
@<TRIPOS>BOND
     1     1     2 ar  
     2     1     6 ar  
     3     1    32 1   
     4     2     3 ar  
     5     2    33 1   
     6     3     4 ar  
     7     3    34 1   
     8     4     5 ar  
     9     4    35 1   
    10     5     6 ar  
    11     5     7 1   
    12     6     8 1   
    13     7     9 1   
    14     7    36 1   
    15     8     9 2   
    16     8    10 1   
    17     9    37 1   
    18    10    11 1   
    19    10    38 1   
    20    10    39 1   
    21    11    12 1   
    22    11    16 1   
    23    12    13 1   
    24    12    40 1   
    25    12    41 1   
    26    13    14 1   
    27    13    42 1   
    28    13    43 1   
    29    14    15 1   
    30    14    17 1   
    31    14    44 1   
    32    15    16 1   
    33    15    45 1   
    34    15    46 1   
    35    16    47 1   
    36    16    48 1   
    37    17    18 1   
    38    17    49 1   
    39    18    19 1   
    40    18    20 2   
    41    19    21 1   
    42    19    22 1   
    43    19    50 1   
    44    21    23 1   
    45    21    51 1   
    46    21    52 1   
    47    22    53 1   
    48    22    54 1   
    49    23    25 2   
    50    23    26 1   
    51    24    25 1   
    52    24    27 1   
    53    24    55 1   
    54    25    56 1   
    55    26    27 ar  
    56    26    31 ar  
    57    27    28 ar  
    58    28    29 ar  
    59    28    57 1   
    60    29    30 ar  
    61    29    58 1   
    62    30    31 ar  
    63    30    59 1   
    64    31    60 1   
@<TRIPOS>SUBSTRUCTURE
     1 RND         1 TEMP              0 ****  ****    0 ROOT
