@<TRIPOS>MOLECULE
RNE
   52    52     1     0     0
SMALL
No Charge or Current Charge


@<TRIPOS>ATOM
      1 NAA          8.5480     1.4430    -1.1260 n8         1 RNE      -0.985200
      2 CAB          7.8460     0.4980    -0.2460 c3         1 RNE       0.182000
      3 CAC          6.3490     0.7020    -0.3330 c2         1 RNE      -0.203200
      4 CAD          5.3820    -0.1150     0.1500 ce         1 RNE      -0.069200
      5 CAG          3.9620     0.2510    -0.0190 ce         1 RNE      -0.173000
      6 CAF          2.8740    -0.4840     0.3510 cf         1 RNE      -0.174000
      7 CAE          1.4930    -0.0490     0.1540 cf         1 RNE      -0.181000
      8 CAH          0.3540    -0.7490     0.4370 ce         1 RNE      -0.062200
      9 CAI         -0.9640    -0.1420     0.1670 ce         1 RNE      -0.187000
     10 CAJ         -2.1820    -0.5700     0.6140 cf         1 RNE      -0.161000
     11 CAK         -3.4640     0.1020     0.2860 cf         1 RNE      -0.081200
     12 CAL         -3.6550     1.4430     0.4760 c2         1 RNE      -0.098400
     13 CAM         -4.9780     2.1430     0.0790 c6         1 RNE      -0.041200
     14 CAN         -5.9650     1.3060    -0.7980 c6         1 RNE      -0.071400
     15 CAO         -5.9810    -0.1440    -0.2810 c6         1 RNE      -0.068400
     16 CAP         -4.5710    -0.8160    -0.3340 c6         1 RNE       0.001200
     17 CAQ         -4.6590    -2.1840     0.4150 c3         1 RNE      -0.081600
     18 CAR         -4.1490    -1.1130    -1.8050 c3         1 RNE      -0.081600
     19 CAS         -2.6460     2.3950     1.1040 c3         1 RNE      -0.056900
     20 CAT          0.3700    -2.1830     0.9610 c3         1 RNE      -0.055900
     21 CAU          5.6920    -1.4080     0.8980 c3         1 RNE      -0.053900
     22 HAA2         9.5550     1.2470    -1.0880 hn         1 RNE       0.389500
     23 HAA1         8.2980     1.2330    -2.1000 hn         1 RNE       0.389500
     24 HAB2         8.1080    -0.5250    -0.5500 h1         1 RNE       0.034700
     25 HAB1         8.1870     0.6540     0.7870 h1         1 RNE       0.034700
     26 HAC1         6.0650     1.6230    -0.8420 ha         1 RNE       0.165000
     27 HAG1         3.7750     1.2140    -0.4970 ha         1 RNE       0.168000
     28 HAF1         3.0340    -1.4500     0.8290 ha         1 RNE       0.173000
     29 HAE1         1.3720     0.9580    -0.2500 ha         1 RNE       0.168000
     30 HAI1        -0.9510     0.7530    -0.4550 ha         1 RNE       0.173000
     31 HAJ1        -2.1970    -1.4740     1.2440 ha         1 RNE       0.174000
     32 HAM2        -5.4980     2.4350     1.0030 hc         1 RNE       0.044700
     33 HAM1        -4.7540     3.0820    -0.4440 hc         1 RNE       0.044700
     34 HAN1        -6.9720     1.7420    -0.7540 hc         1 RNE       0.041700
     35 HAN2        -5.6550     1.3370    -1.8510 hc         1 RNE       0.041700
     36 HAO1        -6.3500    -0.1440     0.7540 hc         1 RNE       0.041200
     37 HAO2        -6.7050    -0.7330    -0.8610 hc         1 RNE       0.041200
     38 HAQ3        -4.8020    -2.0380     1.4930 hc         1 RNE       0.034200
     39 HAQ1        -5.5040    -2.7810     0.0500 hc         1 RNE       0.034200
     40 HAQ2        -3.7610    -2.7970     0.2760 hc         1 RNE       0.034200
     41 HAR1        -3.2120    -1.6820    -1.8470 hc         1 RNE       0.034200
     42 HAR2        -4.9120    -1.6970    -2.3340 hc         1 RNE       0.034200
     43 HAR3        -3.9830    -0.1880    -2.3690 hc         1 RNE       0.034200
     44 HAS3        -2.0910     2.9420     0.3340 hc         1 RNE       0.041033
     45 HAS1        -3.1440     3.1350     1.7410 hc         1 RNE       0.041033
     46 HAS2        -1.9210     1.8740     1.7400 hc         1 RNE       0.041033
     47 HAT2         0.3400    -2.2040     2.0570 hc         1 RNE       0.041367
     48 HAT3        -0.4810    -2.7650     0.5900 hc         1 RNE       0.041367
     49 HAT1         1.2600    -2.7350     0.6400 hc         1 RNE       0.041367
     50 HAU3         5.1740    -1.4410     1.8640 hc         1 RNE       0.041033
     51 HAU1         5.3750    -2.2830     0.3180 hc         1 RNE       0.041033
     52 HAU2         6.7590    -1.5310     1.1140 hc         1 RNE       0.041033
@<TRIPOS>BOND
     1     1     2 1   
     2     1    22 1   
     3     1    23 1   
     4     2     3 1   
     5     2    24 1   
     6     2    25 1   
     7     3     4 2   
     8     3    26 1   
     9     4     5 1   
    10     4    21 1   
    11     5     6 2   
    12     5    27 1   
    13     6     7 1   
    14     6    28 1   
    15     7     8 2   
    16     7    29 1   
    17     8     9 1   
    18     8    20 1   
    19     9    10 2   
    20     9    30 1   
    21    10    11 1   
    22    10    31 1   
    23    11    12 2   
    24    11    16 1   
    25    12    13 1   
    26    12    19 1   
    27    13    14 1   
    28    13    32 1   
    29    13    33 1   
    30    14    15 1   
    31    14    34 1   
    32    14    35 1   
    33    15    16 1   
    34    15    36 1   
    35    15    37 1   
    36    16    17 1   
    37    16    18 1   
    38    17    38 1   
    39    17    39 1   
    40    17    40 1   
    41    18    41 1   
    42    18    42 1   
    43    18    43 1   
    44    19    44 1   
    45    19    45 1   
    46    19    46 1   
    47    20    47 1   
    48    20    48 1   
    49    20    49 1   
    50    21    50 1   
    51    21    51 1   
    52    21    52 1   
@<TRIPOS>SUBSTRUCTURE
     1 RNE         1 TEMP              0 ****  ****    0 ROOT
