@<TRIPOS>MOLECULE
RNE
   52    52     1     0     0
SMALL
abcg2


@<TRIPOS>ATOM
      1 NAA          8.3600     1.5770    -0.1740 n8         1 RNE      -0.985200
      2 CAB          7.7050     0.3620    -0.6550 c3         1 RNE       0.182000
      3 CAC          6.2200     0.5310    -0.6330 c2         1 RNE      -0.203200
      4 CAD          5.2900    -0.2700    -0.0840 ce         1 RNE      -0.069200
      5 CAG          3.8910     0.1120    -0.2220 ce         1 RNE      -0.173000
      6 CAF          2.8340    -0.5670     0.2680 cf         1 RNE      -0.174000
      7 CAE          1.4760    -0.1240     0.0790 cf         1 RNE      -0.181000
      8 CAH          0.3460    -0.7140     0.5380 ce         1 RNE      -0.062200
      9 CAI         -0.9270    -0.0860     0.2230 ce         1 RNE      -0.187000
     10 CAJ         -2.1350    -0.5340     0.6000 cf         1 RNE      -0.161000
     11 CAK         -3.4120     0.1130     0.2640 cf         1 RNE      -0.081200
     12 CAL         -3.6170     1.4310     0.4460 c2         1 RNE      -0.098400
     13 CAM         -4.8780     2.1260     0.0110 c6         1 RNE      -0.041200
     14 CAN         -5.7550     1.2910    -0.9050 c6         1 RNE      -0.071400
     15 CAO         -5.8430    -0.1240    -0.3650 c6         1 RNE      -0.068400
     16 CAP         -4.4760    -0.8160    -0.3240 c6         1 RNE       0.001200
     17 CAQ         -4.6280    -2.0850     0.5250 c3         1 RNE      -0.081600
     18 CAR         -4.0500    -1.2310    -1.7380 c3         1 RNE      -0.081600
     19 CAS         -2.6450     2.3580     1.1190 c3         1 RNE      -0.056900
     20 CAT          0.3330    -1.9710     1.3530 c3         1 RNE      -0.055900
     21 CAU          5.5970    -1.5360     0.6610 c3         1 RNE      -0.053900
     22 HAA2         9.3630     1.4440    -0.2170 hn         1 RNE       0.389500
     23 HAA1         8.1650     2.3340    -0.8180 hn         1 RNE       0.389500
     24 HAB2         8.0020     0.0910    -1.6800 h1         1 RNE       0.034700
     25 HAB1         8.0190    -0.4680    -0.0210 h1         1 RNE       0.034700
     26 HAC1         5.8650     1.4190    -1.1520 ha         1 RNE       0.165000
     27 HAG1         3.7000     1.0280    -0.7760 ha         1 RNE       0.168000
     28 HAF1         3.0050    -1.4810     0.8250 ha         1 RNE       0.173000
     29 HAE1         1.3600     0.7890    -0.5000 ha         1 RNE       0.168000
     30 HAI1        -0.8730     0.8150    -0.3810 ha         1 RNE       0.173000
     31 HAJ1        -2.1920    -1.4630     1.1590 ha         1 RNE       0.174000
     32 HAM2        -5.4400     2.4240     0.9060 hc         1 RNE       0.044700
     33 HAM1        -4.6040     3.0670    -0.4770 hc         1 RNE       0.044700
     34 HAN1        -6.7480     1.7370    -0.9870 hc         1 RNE       0.041700
     35 HAN2        -5.3360     1.2830    -1.9150 hc         1 RNE       0.041700
     36 HAO1        -6.2570    -0.0890     0.6500 hc         1 RNE       0.041200
     37 HAO2        -6.5320    -0.7300    -0.9600 hc         1 RNE       0.041200
     38 HAQ3        -4.8130    -1.8470     1.5750 hc         1 RNE       0.034200
     39 HAQ1        -5.4770    -2.6670     0.1620 hc         1 RNE       0.034200
     40 HAQ2        -3.7510    -2.7310     0.4720 hc         1 RNE       0.034200
     41 HAR1        -3.0610    -1.6940    -1.7290 hc         1 RNE       0.034200
     42 HAR2        -4.7520    -1.9560    -2.1560 hc         1 RNE       0.034200
     43 HAR3        -4.0070    -0.3770    -2.4160 hc         1 RNE       0.034200
     44 HAS3        -2.0990     2.9650     0.3920 hc         1 RNE       0.041033
     45 HAS1        -3.1860     3.0600     1.7590 hc         1 RNE       0.041033
     46 HAS2        -1.9090     1.8410     1.7320 hc         1 RNE       0.041033
     47 HAT2        -0.1210    -1.7940     2.3310 hc         1 RNE       0.041367
     48 HAT3        -0.2630    -2.7470     0.8670 hc         1 RNE       0.041367
     49 HAT1         1.3260    -2.3800     1.5220 hc         1 RNE       0.041367
     50 HAU3         5.2530    -1.4740     1.6960 hc         1 RNE       0.041033
     51 HAU1         5.0850    -2.3880     0.2100 hc         1 RNE       0.041033
     52 HAU2         6.6580    -1.7670     0.6800 hc         1 RNE       0.041033
@<TRIPOS>BOND
     1     1     2 1   
     2     1    22 1   
     3     1    23 1   
     4     2     3 1   
     5     2    24 1   
     6     2    25 1   
     7     3     4 2   
     8     3    26 1   
     9     4     5 1   
    10     4    21 1   
    11     5     6 2   
    12     5    27 1   
    13     6     7 1   
    14     6    28 1   
    15     7     8 2   
    16     7    29 1   
    17     8     9 1   
    18     8    20 1   
    19     9    10 2   
    20     9    30 1   
    21    10    11 1   
    22    10    31 1   
    23    11    12 2   
    24    11    16 1   
    25    12    13 1   
    26    12    19 1   
    27    13    14 1   
    28    13    32 1   
    29    13    33 1   
    30    14    15 1   
    31    14    34 1   
    32    14    35 1   
    33    15    16 1   
    34    15    36 1   
    35    15    37 1   
    36    16    17 1   
    37    16    18 1   
    38    17    38 1   
    39    17    39 1   
    40    17    40 1   
    41    18    41 1   
    42    18    42 1   
    43    18    43 1   
    44    19    44 1   
    45    19    45 1   
    46    19    46 1   
    47    20    47 1   
    48    20    48 1   
    49    20    49 1   
    50    21    50 1   
    51    21    51 1   
    52    21    52 1   
@<TRIPOS>SUBSTRUCTURE
     1 RNE         1 TEMP              0 ****  ****    0 ROOT
