@<TRIPOS>MOLECULE
RNF
   62    65     1     0     0
SMALL
abcg2


@<TRIPOS>ATOM
      1 N1         -63.4080    21.4000    -5.9860 nu         1 RNF      -0.920100
      2 C2         -62.7940    22.4510    -6.5760 ca         1 RNF       0.465900
      3 N3         -61.4950    24.6770    -7.6960 nb         1 RNF      -0.298000
      4 C4         -62.5510    24.1000    -8.2750 ca         1 RNF       0.178500
      5 C5         -63.2520    22.9930    -7.7910 ca         1 RNF      -0.146600
      6 C6         -64.2300    23.5580    -9.5960 cc         1 RNF       0.392700
      7 C8         -61.5020    25.3410   -11.0030 c3         1 RNF      -0.107100
      8 C9         -63.0140    26.9030    -9.6820 c3         1 RNF      -0.107100
      9 C11        -60.1060    23.7270    -3.5500 c3         1 RNF       0.155600
     10 C14        -63.4590    22.0050    -3.5630 ca         1 RNF      -0.095300
     11 C15        -62.8350    21.9330    -2.3190 ca         1 RNF      -0.104000
     12 C16        -63.0960    22.8730    -1.3320 ca         1 RNF      -0.102500
     13 O1         -60.9080    24.8410    -3.1520 oh         1 RNF      -0.662000
     14 C1         -63.1210    20.9810    -4.6290 c3         1 RNF       0.281100
     15 C10        -59.2990    24.0690    -4.7990 c3         1 RNF       0.258500
     16 C12        -58.4760    22.8610    -5.2780 c3         1 RNF      -0.108400
     17 C13        -57.4230    22.3740    -4.2830 c3         1 RNF      -0.086100
     18 C17        -63.9960    23.9220    -1.5560 cp         1 RNF      -0.038000
     19 C18        -64.6320    23.9780    -2.8000 ca         1 RNF      -0.102500
     20 C19        -64.3690    23.0350    -3.7850 ca         1 RNF      -0.104000
     21 C20        -64.2530    24.9440    -0.5170 cp         1 RNF      -0.035000
     22 C21        -65.5280    25.4980    -0.3520 ca         1 RNF      -0.098500
     23 C22        -65.7670    26.4570     0.6250 ca         1 RNF      -0.110500
     24 C23        -64.7380    26.8830     1.4590 ca         1 RNF      -0.106000
     25 C24        -63.4650    26.3410     1.3040 ca         1 RNF      -0.110500
     26 C25        -63.2250    25.3830     0.3270 ca         1 RNF      -0.098500
     27 C3         -61.1370    24.0710    -6.5460 ca         1 RNF       0.435900
     28 N2         -61.7280    22.9970    -5.9840 nb         1 RNF      -0.332000
     29 N4         -64.3040    22.6710    -8.6340 nd         1 RNF      -0.550100
     30 N5         -63.1940    24.4530    -9.4420 na         1 RNF      -0.301300
     31 N6         -60.0960    24.6440    -5.8810 nu         1 RNF      -0.907100
     32 H12        -64.2720    21.0950    -6.4040 hn         1 RNF       0.510000
     33 H61        -64.8910    23.6220   -10.4460 h5         1 RNF       0.060800
     34 H71        -63.6330    25.4740   -11.1500 h1         1 RNF       0.048700
     35 H81        -61.4460    24.3660   -11.4890 hc         1 RNF       0.050867
     36 H82        -61.3260    26.1140   -11.7530 hc         1 RNF       0.050867
     37 H83        -60.7140    25.4030   -10.2520 hc         1 RNF       0.050867
     38 H91        -64.0090    27.0150    -9.2490 hc         1 RNF       0.050867
     39 H93        -62.2730    27.0140    -8.8890 hc         1 RNF       0.050867
     40 H92        -62.8620    27.6990   -10.4120 hc         1 RNF       0.050867
     41 H111       -59.4030    23.4720    -2.7520 h1         1 RNF       0.035700
     42 H151       -62.1210    21.1400    -2.1230 ha         1 RNF       0.115500
     43 H161       -62.5990    22.7870    -0.3740 ha         1 RNF       0.117000
     44 H11        -61.5970    24.5100    -2.5610 ho         1 RNF       0.447000
     45 H14        -63.6870    20.0640    -4.4560 h1         1 RNF       0.061200
     46 H13        -62.0640    20.7250    -4.5430 h1         1 RNF       0.061200
     47 H101       -58.6020    24.8670    -4.5280 h1         1 RNF       0.054700
     48 H122       -57.9830    23.1560    -6.2080 hc         1 RNF       0.052200
     49 H121       -59.1610    22.0480    -5.5290 hc         1 RNF       0.052200
     50 H131       -56.7910    21.6110    -4.7420 hc         1 RNF       0.033700
     51 H133       -56.7760    23.1960    -3.9650 hc         1 RNF       0.033700
     52 H132       -57.8720    21.9370    -3.3900 hc         1 RNF       0.033700
     53 H181       -65.3200    24.7870    -3.0140 ha         1 RNF       0.117000
     54 H191       -64.8560    23.1250    -4.7470 ha         1 RNF       0.115500
     55 H211       -66.3430    25.1620    -0.9800 ha         1 RNF       0.113000
     56 H221       -66.7630    26.8670     0.7400 ha         1 RNF       0.113000
     57 H231       -64.9250    27.6300     2.2200 ha         1 RNF       0.113000
     58 H241       -62.6530    26.6720     1.9410 ha         1 RNF       0.113000
     59 H251       -62.2260    24.9870     0.2030 ha         1 RNF       0.113000
     60 H62        -59.6550    25.3900    -6.3940 hn         1 RNF       0.496000
     61 C7         -62.8750    25.5480   -10.3690 c3         1 RNF       0.109300
     62 H112       -60.7370    22.8640    -3.7510 h1         1 RNF       0.035700
@<TRIPOS>BOND
     1     1     2 1   
     2     1    14 1   
     3     1    32 1   
     4     2     5 ar  
     5     2    28 ar  
     6     3     4 ar  
     7     3    27 ar  
     8     4     5 ar  
     9     4    30 1   
    10     5    29 1   
    11     6    29 2   
    12     6    30 1   
    13     6    33 1   
    14     7    35 1   
    15     7    36 1   
    16     7    37 1   
    17     7    61 1   
    18     8    38 1   
    19     8    39 1   
    20     8    40 1   
    21     8    61 1   
    22     9    13 1   
    23     9    15 1   
    24     9    41 1   
    25     9    62 1   
    26    10    11 ar  
    27    10    14 1   
    28    10    20 ar  
    29    11    12 ar  
    30    11    42 1   
    31    12    18 ar  
    32    12    43 1   
    33    13    44 1   
    34    14    45 1   
    35    14    46 1   
    36    15    16 1   
    37    15    31 1   
    38    15    47 1   
    39    16    17 1   
    40    16    48 1   
    41    16    49 1   
    42    17    50 1   
    43    17    51 1   
    44    17    52 1   
    45    18    19 ar  
    46    18    21 1   
    47    19    20 ar  
    48    19    53 1   
    49    20    54 1   
    50    21    22 ar  
    51    21    26 ar  
    52    22    23 ar  
    53    22    55 1   
    54    23    24 ar  
    55    23    56 1   
    56    24    25 ar  
    57    24    57 1   
    58    25    26 ar  
    59    25    58 1   
    60    26    59 1   
    61    27    28 ar  
    62    27    31 1   
    63    30    61 1   
    64    31    60 1   
    65    34    61 1   
@<TRIPOS>SUBSTRUCTURE
     1 RNF         1 TEMP              0 ****  ****    0 ROOT
