@<TRIPOS>MOLECULE
RNF
   62    65     1     0     0
SMALL
No Charge or Current Charge


@<TRIPOS>ATOM
      1 N1         -64.0490    21.9130    -6.2730 nu         1 RNF      -0.920100
      2 C2         -63.2110    22.8580    -6.8520 ca         1 RNF       0.465900
      3 N3         -61.5300    24.7080    -8.0080 nb         1 RNF      -0.298000
      4 C4         -62.4780    24.1060    -8.7480 ca         1 RNF       0.178500
      5 C5         -63.3400    23.1790    -8.2170 ca         1 RNF      -0.146600
      6 C6         -63.9080    23.3300   -10.2920 cc         1 RNF       0.392700
      7 C8         -60.7080    24.7110   -11.2920 c3         1 RNF      -0.107100
      8 C9         -62.3590    26.5830   -10.7010 c3         1 RNF      -0.107100
      9 C11        -61.3890    25.3000    -3.6260 c3         1 RNF       0.155600
     10 C14        -63.7120    21.9190    -3.7850 ca         1 RNF      -0.095300
     11 C15        -62.6780    21.6840    -2.8580 ca         1 RNF      -0.104000
     12 C16        -62.6010    22.4320    -1.6710 ca         1 RNF      -0.102500
     13 O1         -61.9910    26.4850    -4.1690 oh         1 RNF      -0.662000
     14 C1         -63.7840    21.0950    -5.0730 c3         1 RNF       0.281100
     15 C10        -60.1840    24.8750    -4.5240 c3         1 RNF       0.258500
     16 C12        -59.6150    23.4680    -4.2030 c3         1 RNF      -0.108400
     17 C13        -59.0220    23.3390    -2.7840 c3         1 RNF      -0.086100
     18 C17        -63.5530    23.4370    -1.3730 cp         1 RNF      -0.038000
     19 C18        -64.5960    23.6530    -2.3080 ca         1 RNF      -0.102500
     20 C19        -64.6770    22.9040    -3.4950 ca         1 RNF      -0.104000
     21 C20        -63.4570    24.2480    -0.1170 cp         1 RNF      -0.035000
     22 C21        -64.6210    24.6820     0.5670 ca         1 RNF      -0.098500
     23 C22        -64.5300    25.4460     1.7440 ca         1 RNF      -0.110500
     24 C23        -63.2720    25.7930     2.2620 ca         1 RNF      -0.106000
     25 C24        -62.1050    25.3750     1.6020 ca         1 RNF      -0.110500
     26 C25        -62.1970    24.6110     0.4250 ca         1 RNF      -0.098500
     27 C3         -61.4800    24.3430    -6.7140 ca         1 RNF       0.435900
     28 N2         -62.2710    23.4460    -6.0950 nb         1 RNF      -0.332000
     29 N4         -64.2440    22.6770    -9.1640 nd         1 RNF      -0.550100
     30 N5         -62.8410    24.2010   -10.0660 na         1 RNF      -0.301300
     31 N6         -60.5110    25.0030    -5.9700 nu         1 RNF      -0.907100
     32 H12        -64.7140    21.5330    -6.9460 hn         1 RNF       0.510000
     33 H61        -64.3770    23.2210   -11.2630 h5         1 RNF       0.060800
     34 H71        -62.7060    24.9300   -12.0010 h1         1 RNF       0.048700
     35 H81        -60.6230    23.6520   -11.5660 hc         1 RNF       0.050867
     36 H82        -60.2900    25.3080   -12.1110 hc         1 RNF       0.050867
     37 H83        -60.0990    24.8850   -10.3980 hc         1 RNF       0.050867
     38 H91        -63.4200    26.8250   -10.5650 hc         1 RNF       0.050867
     39 H93        -61.8250    26.8440    -9.7800 hc         1 RNF       0.050867
     40 H92        -61.9690    27.2120   -11.5100 hc         1 RNF       0.050867
     41 H111       -61.0480    25.4710    -2.5960 h1         1 RNF       0.035700
     42 H151       -61.9300    20.9200    -3.0570 ha         1 RNF       0.115500
     43 H161       -61.7970    22.2210    -0.9700 ha         1 RNF       0.117000
     44 H11        -61.8370    26.3860    -5.1380 ho         1 RNF       0.447000
     45 H14        -64.5810    20.3480    -4.9540 h1         1 RNF       0.061200
     46 H13        -62.8440    20.5420    -5.2070 h1         1 RNF       0.061200
     47 H101       -59.3760    25.5890    -4.3100 h1         1 RNF       0.054700
     48 H122       -58.8270    23.2320    -4.9280 hc         1 RNF       0.052200
     49 H121       -60.3950    22.7100    -4.3290 hc         1 RNF       0.052200
     50 H131       -58.6010    22.3370    -2.6380 hc         1 RNF       0.033700
     51 H133       -58.2220    24.0720    -2.6290 hc         1 RNF       0.033700
     52 H132       -59.7900    23.4970    -2.0180 hc         1 RNF       0.033700
     53 H181       -65.3410    24.4230    -2.1230 ha         1 RNF       0.117000
     54 H191       -65.4850    23.0970    -4.1960 ha         1 RNF       0.115500
     55 H211       -65.6050    24.4140     0.1910 ha         1 RNF       0.113000
     56 H221       -65.4350    25.7660     2.2560 ha         1 RNF       0.113000
     57 H231       -63.2010    26.3840     3.1720 ha         1 RNF       0.113000
     58 H241       -61.1290    25.6460     1.9990 ha         1 RNF       0.113000
     59 H251       -61.2820    24.3090    -0.0760 ha         1 RNF       0.113000
     60 H62        -59.8690    25.5600    -6.5350 hn         1 RNF       0.496000
     61 C7         -62.1850    25.0890   -11.0480 c3         1 RNF       0.109300
     62 H112       -62.1230    24.4860    -3.6050 h1         1 RNF       0.035700
@<TRIPOS>BOND
     1     1     2 1   
     2     1    14 1   
     3     1    32 1   
     4     2     5 ar  
     5     2    28 ar  
     6     3     4 ar  
     7     3    27 ar  
     8     4     5 ar  
     9     4    30 1   
    10     5    29 1   
    11     6    29 2   
    12     6    30 1   
    13     6    33 1   
    14     7    35 1   
    15     7    36 1   
    16     7    37 1   
    17     7    61 1   
    18     8    38 1   
    19     8    39 1   
    20     8    40 1   
    21     8    61 1   
    22     9    13 1   
    23     9    15 1   
    24     9    41 1   
    25     9    62 1   
    26    10    11 ar  
    27    10    14 1   
    28    10    20 ar  
    29    11    12 ar  
    30    11    42 1   
    31    12    18 ar  
    32    12    43 1   
    33    13    44 1   
    34    14    45 1   
    35    14    46 1   
    36    15    16 1   
    37    15    31 1   
    38    15    47 1   
    39    16    17 1   
    40    16    48 1   
    41    16    49 1   
    42    17    50 1   
    43    17    51 1   
    44    17    52 1   
    45    18    19 ar  
    46    18    21 1   
    47    19    20 ar  
    48    19    53 1   
    49    20    54 1   
    50    21    22 ar  
    51    21    26 ar  
    52    22    23 ar  
    53    22    55 1   
    54    23    24 ar  
    55    23    56 1   
    56    24    25 ar  
    57    24    57 1   
    58    25    26 ar  
    59    25    58 1   
    60    26    59 1   
    61    27    28 ar  
    62    27    31 1   
    63    30    61 1   
    64    31    60 1   
    65    34    61 1   
@<TRIPOS>SUBSTRUCTURE
     1 RNF         1 TEMP              0 ****  ****    0 ROOT
