@<TRIPOS>MOLECULE
RNG
   32    33     1     0     0
SMALL
bcc


@<TRIPOS>ATOM
      1 O            6.4230     1.3320    -0.4680 o          1 RNG      -0.507100
      2 C            5.8110     0.6770    -1.2740 c          1 RNG       0.573900
      3 CA           4.4560     0.0790    -1.0420 c3         1 RNG      -0.220400
      4 CH           4.3800    -1.3560    -1.5710 c6         1 RNG       0.124700
      5 CG           5.3250    -2.3240    -0.8560 c6         1 RNG      -0.092400
      6 CF           4.8590    -2.6290     0.5620 c6         1 RNG      -0.097400
      7 CE           3.4060    -3.0810     0.5530 c6         1 RNG       0.103000
      8 N1           2.5950    -2.1130    -0.1700 n          1 RNG      -0.355400
      9 C1           1.5460    -1.4320     0.3730 c          1 RNG       0.719500
     10 O1           1.2180    -1.5930     1.5350 o          1 RNG      -0.615500
     11 CD           0.7760    -0.5690    -0.5940 c3         1 RNG      -0.159400
     12 CC           0.0090    -1.4300    -1.6110 c3         1 RNG      -0.063400
     13 CB           0.8260    -2.6020    -2.1830 c3         1 RNG      -0.158400
     14 C2           2.2290    -2.1740    -2.5310 c          1 RNG       0.722500
     15 O2           2.6240    -2.0260    -3.6730 o          1 RNG      -0.618500
     16 N2           3.0170    -1.8650    -1.4590 n          1 RNG      -0.356400
     17 H            6.2260     0.4950    -2.2830 h4         1 RNG      -0.014800
     18 HA1          3.7530     0.6970    -1.6140 hc         1 RNG       0.077700
     19 HA2          4.1890     0.1620     0.0130 hc         1 RNG       0.077700
     20 HH           4.6200    -1.3450    -2.6340 h1         1 RNG       0.089700
     21 HG1          6.3410    -1.9210    -0.8510 hc         1 RNG       0.054700
     22 HG2          5.3630    -3.2500    -1.4340 hc         1 RNG       0.054700
     23 HF1          5.4780    -3.4130     0.9990 hc         1 RNG       0.057200
     24 HF2          4.9630    -1.7500     1.2030 hc         1 RNG       0.057200
     25 HE1          3.3090    -4.0530     0.0610 h1         1 RNG       0.066200
     26 HE2          3.0130    -3.1750     1.5610 h1         1 RNG       0.066200
     27 HD1          0.0770     0.0410    -0.0250 hc         1 RNG       0.073700
     28 HD2          1.4480     0.1170    -1.1130 hc         1 RNG       0.073700
     29 HC1         -0.8880    -1.8360    -1.1430 hc         1 RNG       0.057700
     30 HC2         -0.3250    -0.7850    -2.4240 hc         1 RNG       0.057700
     31 HB1          0.3500    -2.9730    -3.0890 hc         1 RNG       0.075200
     32 HB2          0.8480    -3.4300    -1.4710 hc         1 RNG       0.075200
@<TRIPOS>BOND
     1     1     2 2   
     2     2     3 1   
     3     2    17 1   
     4     3     4 1   
     5     3    18 1   
     6     3    19 1   
     7     4     5 1   
     8     4    16 1   
     9     4    20 1   
    10     5     6 1   
    11     5    21 1   
    12     5    22 1   
    13     6     7 1   
    14     6    23 1   
    15     6    24 1   
    16     7     8 1   
    17     7    25 1   
    18     7    26 1   
    19     8     9 1   
    20     8    16 1   
    21     9    10 2   
    22     9    11 1   
    23    11    12 1   
    24    11    27 1   
    25    11    28 1   
    26    12    13 1   
    27    12    29 1   
    28    12    30 1   
    29    13    14 1   
    30    13    31 1   
    31    13    32 1   
    32    14    15 2   
    33    14    16 1   
@<TRIPOS>SUBSTRUCTURE
     1 RNG         1 TEMP              0 ****  ****    0 ROOT
