@<TRIPOS>MOLECULE
RNG
   32    33     1     0     0
SMALL
No Charge or Current Charge


@<TRIPOS>ATOM
      1 O            6.8580     0.6670    -0.5720 o          1 RNG      -0.507100
      2 C            5.9370     0.7180    -1.3790 c          1 RNG       0.573900
      3 CA           4.5630     0.1000    -1.1250 c3         1 RNG      -0.220400
      4 CH           4.4610    -1.3810    -1.5920 c6         1 RNG       0.124700
      5 CG           5.3970    -2.3590    -0.8170 c6         1 RNG      -0.092400
      6 CF           4.9320    -2.6060     0.6470 c6         1 RNG      -0.097400
      7 CE           3.4460    -3.0480     0.7110 c6         1 RNG       0.103000
      8 N1           2.6110    -2.1220    -0.0850 n          1 RNG      -0.288400
      9 C1           1.3970    -1.5310     0.3700 c          1 RNG       0.577000
     10 O1           0.9420    -1.8050     1.4730 o          1 RNG      -0.540000
     11 CD           0.6150    -0.6140    -0.5820 c3         1 RNG      -0.159400
     12 CC          -0.1210    -1.4410    -1.6660 c3         1 RNG      -0.063400
     13 CB           0.7520    -2.5760    -2.2600 c3         1 RNG      -0.158400
     14 C2           2.1760    -2.0770    -2.5490 c          1 RNG       0.580000
     15 O2           2.5060    -1.7890    -3.6920 o          1 RNG      -0.543000
     16 N2           3.0720    -1.8730    -1.4590 n          1 RNG      -0.289400
     17 H            6.0600     1.2260    -2.3610 h4         1 RNG      -0.014800
     18 HA1          3.8420     0.6700    -1.7220 hc         1 RNG       0.077700
     19 HA2          4.3200     0.1870    -0.0610 hc         1 RNG       0.077700
     20 HH           4.7520    -1.4130    -2.6530 h1         1 RNG       0.089700
     21 HG1          6.4350    -2.0010    -0.8300 hc         1 RNG       0.054700
     22 HG2          5.4090    -3.3210    -1.3470 hc         1 RNG       0.054700
     23 HF1          5.5650    -3.3680     1.1200 hc         1 RNG       0.057200
     24 HF2          5.0630    -1.6890     1.2370 hc         1 RNG       0.057200
     25 HE1          3.3420    -4.0610     0.2990 h1         1 RNG       0.066200
     26 HE2          3.1120    -3.0750     1.7580 h1         1 RNG       0.066200
     27 HD1         -0.1100    -0.0130    -0.0210 hc         1 RNG       0.073700
     28 HD2          1.3180     0.0440    -1.1050 hc         1 RNG       0.073700
     29 HC1         -1.0310    -1.8810    -1.2370 hc         1 RNG       0.057700
     30 HC2         -0.4450    -0.7670    -2.4690 hc         1 RNG       0.057700
     31 HB1          0.2900    -2.9560    -3.1780 hc         1 RNG       0.075200
     32 HB2          0.7970    -3.3720    -1.5080 hc         1 RNG       0.075200
@<TRIPOS>BOND
     1     1     2 2   
     2     2     3 1   
     3     2    17 1   
     4     3     4 1   
     5     3    18 1   
     6     3    19 1   
     7     4     5 1   
     8     4    16 1   
     9     4    20 1   
    10     5     6 1   
    11     5    21 1   
    12     5    22 1   
    13     6     7 1   
    14     6    23 1   
    15     6    24 1   
    16     7     8 1   
    17     7    25 1   
    18     7    26 1   
    19     8     9 1   
    20     8    16 1   
    21     9    10 2   
    22     9    11 1   
    23    11    12 1   
    24    11    27 1   
    25    11    28 1   
    26    12    13 1   
    27    12    29 1   
    28    12    30 1   
    29    13    14 1   
    30    13    31 1   
    31    13    32 1   
    32    14    15 2   
    33    14    16 1   
@<TRIPOS>SUBSTRUCTURE
     1 RNG         1 TEMP              0 ****  ****    0 ROOT
