@<TRIPOS>MOLECULE
RNH
   54    53     1     0     0
SMALL
bcc


@<TRIPOS>ATOM
      1 CAA          8.4370     0.1040     0.0050 c3         1 RNH      -0.076400
      2 CAB         -4.5030     2.0540     0.3910 c3         1 RNH      -0.081600
      3 CAC         -6.6900     1.4070     1.3880 c3         1 RNH      -0.081600
      4 OAD          1.0060    -1.5600    -1.5020 o          1 RNH      -0.595100
      5 OAE         -4.1570    -1.7050    -0.8950 o          1 RNH      -0.614100
      6 OAG         -6.0010    -1.3640     1.0110 oh         1 RNH      -0.585800
      7 CAJ          7.0400     0.5250     0.4420 c3         1 RNH      -0.074400
      8 CAK          5.9350    -0.2150    -0.3000 c3         1 RNH      -0.073400
      9 CAL          4.5380     0.1920     0.1520 c3         1 RNH      -0.094400
     10 CAM          3.4560    -0.5630    -0.6020 c3         1 RNH       0.106000
     11 CAN         -1.4970    -0.9520    -0.4600 c3         1 RNH       0.117000
     12 CAO         -0.2590    -0.2630     0.0830 c3         1 RNH      -0.182400
     13 CAP         -6.1870     0.8270    -1.0080 c3         1 RNH       0.142400
     14 NAQ          2.1400    -0.1920    -0.1230 ns         1 RNH      -0.577900
     15 NAR         -2.6590    -0.5060     0.2850 ns         1 RNH      -0.566900
     16 OAS         -6.7780     2.0440    -1.4070 oh         1 RNH      -0.601800
     17 CAT          1.0110    -0.7380    -0.5960 c          1 RNH       0.668100
     18 CAU         -3.8970    -0.9150     0.0070 c          1 RNH       0.629100
     19 CAV         -5.0210    -0.3670     0.8910 c3         1 RNH       0.076100
     20 CAW         -5.6010     0.9870     0.3960 c3         1 RNH      -0.063000
     21 CAY          9.5480     0.8390     0.7430 c3         1 RNH      -0.074400
     22 CAZ         10.9390     0.4060     0.3010 c3         1 RNH      -0.089100
     23 HAA          8.5530    -0.9750     0.1560 hc         1 RNH       0.038700
     24 HAAA         8.5450     0.2710    -1.0730 hc         1 RNH       0.038700
     25 HAB         -3.9840     2.0910     1.3530 hc         1 RNH       0.040033
     26 HABA        -3.7590     1.8830    -0.3880 hc         1 RNH       0.040033
     27 HABB        -4.9300     3.0410     0.2220 hc         1 RNH       0.040033
     28 HAC         -7.1110     2.3750     1.1180 hc         1 RNH       0.040033
     29 HACA        -7.5060     0.6860     1.4270 hc         1 RNH       0.040033
     30 HACB        -6.2760     1.5000     2.3950 hc         1 RNH       0.040033
     31 HOAG        -6.0050    -1.8640     0.1840 ho         1 RNH       0.430000
     32 HAJ          6.9310     0.3560     1.5190 hc         1 RNH       0.037200
     33 HAJA         6.9210     1.6030     0.2910 hc         1 RNH       0.037200
     34 HAK          6.0370    -0.0370    -1.3750 hc         1 RNH       0.043700
     35 HAKA         6.0610    -1.2940    -0.1560 hc         1 RNH       0.043700
     36 HAL          4.4350     0.0030     1.2260 hc         1 RNH       0.041700
     37 HALA         4.4050     1.2680     0.0080 hc         1 RNH       0.041700
     38 HAM          3.5370    -0.3540    -1.6730 h1         1 RNH       0.053700
     39 HAMA         3.6040    -1.6400    -0.4790 h1         1 RNH       0.053700
     40 HAN         -1.6280    -0.7230    -1.5190 h1         1 RNH       0.072700
     41 HANA        -1.3980    -2.0350    -0.3730 h1         1 RNH       0.072700
     42 HAO         -0.3430     0.8210    -0.0400 hc         1 RNH       0.059200
     43 HAOA        -0.1690    -0.4430     1.1580 hc         1 RNH       0.059200
     44 HAP         -6.9280     0.0180    -1.0080 h1         1 RNH       0.029200
     45 HAPA        -5.3910     0.5380    -1.7070 h1         1 RNH       0.029200
     46 HNAQ         2.0790     0.4650     0.6390 hn         1 RNH       0.310500
     47 HNAR        -2.5200     0.1000     1.0780 hn         1 RNH       0.314500
     48 HOAS        -7.1390     1.9200    -2.2890 ho         1 RNH       0.405000
     49 HAV         -4.6190    -0.1850     1.8960 h1         1 RNH       0.068700
     50 HAY          9.4330     1.9170     0.5900 hc         1 RNH       0.036700
     51 HAYA         9.4380     0.6740     1.8200 hc         1 RNH       0.036700
     52 HAZ         11.0920    -0.6610     0.4740 hc         1 RNH       0.032367
     53 HAZA        11.0880     0.5900    -0.7650 hc         1 RNH       0.032367
     54 HAZB        11.7190     0.9440     0.8410 hc         1 RNH       0.032367
@<TRIPOS>BOND
     1     1     7 1   
     2     1    21 1   
     3     1    23 1   
     4     1    24 1   
     5     2    20 1   
     6     2    25 1   
     7     2    26 1   
     8     2    27 1   
     9     3    20 1   
    10     3    28 1   
    11     3    29 1   
    12     3    30 1   
    13     4    17 2   
    14     5    18 2   
    15     6    19 1   
    16     6    31 1   
    17     7     8 1   
    18     7    32 1   
    19     7    33 1   
    20     8     9 1   
    21     8    34 1   
    22     8    35 1   
    23     9    10 1   
    24     9    36 1   
    25     9    37 1   
    26    10    14 1   
    27    10    38 1   
    28    10    39 1   
    29    11    12 1   
    30    11    15 1   
    31    11    40 1   
    32    11    41 1   
    33    12    17 1   
    34    12    42 1   
    35    12    43 1   
    36    13    16 1   
    37    13    20 1   
    38    13    44 1   
    39    13    45 1   
    40    14    17 1   
    41    14    46 1   
    42    15    18 1   
    43    15    47 1   
    44    16    48 1   
    45    18    19 1   
    46    19    20 1   
    47    19    49 1   
    48    21    22 1   
    49    21    50 1   
    50    21    51 1   
    51    22    52 1   
    52    22    53 1   
    53    22    54 1   
@<TRIPOS>SUBSTRUCTURE
     1 RNH         1 TEMP              0 ****  ****    0 ROOT
