@<TRIPOS>MOLECULE
RNH
   54    53     1     0     0
SMALL
No Charge or Current Charge


@<TRIPOS>ATOM
      1 CAA          8.1960     0.2390     0.0560 c3         1 RNH      -0.076400
      2 CAB         -3.9890     1.9380     0.8200 c3         1 RNH      -0.081600
      3 CAC         -6.4070     1.5850     1.4480 c3         1 RNH      -0.081600
      4 OAD          0.8410    -1.8200    -2.0310 o          1 RNH      -0.595100
      5 OAE         -3.8130    -1.4760    -1.0360 o          1 RNH      -0.614100
      6 OAG         -6.1270    -1.2520     0.6470 oh         1 RNH      -0.648000
      7 CAJ          6.7270     0.5580     0.4100 c3         1 RNH      -0.074400
      8 CAK          5.7140    -0.2250    -0.4540 c3         1 RNH      -0.073400
      9 CAL          4.2450     0.0940    -0.1000 c3         1 RNH      -0.094400
     10 CAM          3.2370    -0.6890    -0.9630 c3         1 RNH       0.106000
     11 CAN         -1.2560    -1.5220     0.2570 c3         1 RNH       0.117000
     12 CAO         -0.5920    -0.4620    -0.6400 c3         1 RNH      -0.182400
     13 CAP         -5.6610     1.2350    -0.9800 c3         1 RNH       0.165600
     14 NAQ          1.8570    -0.3670    -0.6040 ns         1 RNH      -0.510900
     15 NAR         -2.5320    -1.0470     0.7980 ns         1 RNH      -0.499900
     16 OAS         -5.9550     2.6010    -1.3130 oh         1 RNH      -0.664000
     17 CAT          0.7510    -0.9670    -1.1610 c          1 RNH       0.601100
     18 CAU         -3.7190    -1.0120     0.0940 c          1 RNH       0.562100
     19 CAV         -4.9510    -0.4300     0.8650 c3         1 RNH       0.099300
     20 CAW         -5.2560     1.0790     0.5250 c3         1 RNH      -0.063000
     21 CAY          9.2090     1.0230     0.9200 c3         1 RNH      -0.074400
     22 CAZ         10.6750     0.7050     0.5670 c3         1 RNH      -0.089100
     23 HAA          8.3720    -0.8360     0.1830 hc         1 RNH       0.038700
     24 HAAA         8.3700     0.4710    -1.0020 hc         1 RNH       0.038700
     25 HAB         -3.6330     1.7750     1.8450 hc         1 RNH       0.040033
     26 HABA        -3.1700     1.6950     0.1320 hc         1 RNH       0.040033
     27 HABB        -4.2000     3.0090     0.7120 hc         1 RNH       0.040033
     28 HAC         -6.5810     2.6600     1.3170 hc         1 RNH       0.040033
     29 HACA        -7.3500     1.0690     1.2290 hc         1 RNH       0.040033
     30 HACB        -6.1660     1.4140     2.5040 hc         1 RNH       0.040033
     31 HOAG        -6.0200    -1.6670    -0.2400 ho         1 RNH       0.469000
     32 HAJ          6.5520     0.3270     1.4680 hc         1 RNH       0.037200
     33 HAJA         6.5510     1.6340     0.2840 hc         1 RNH       0.037200
     34 HAK          5.8870     0.0060    -1.5120 hc         1 RNH       0.043700
     35 HAKA         5.8890    -1.3010    -0.3280 hc         1 RNH       0.043700
     36 HAL          4.0690    -0.1400     0.9580 hc         1 RNH       0.041700
     37 HALA         4.0680     1.1690    -0.2280 hc         1 RNH       0.041700
     38 HAM          3.3930    -0.4480    -2.0230 h1         1 RNH       0.053700
     39 HAMA         3.3970    -1.7680    -0.8270 h1         1 RNH       0.053700
     40 HAN         -1.4270    -2.4440    -0.3170 h1         1 RNH       0.072700
     41 HANA        -0.5880    -1.7670     1.0940 h1         1 RNH       0.072700
     42 HAO         -1.2490    -0.2630    -1.4940 hc         1 RNH       0.059200
     43 HAOA        -0.4540     0.4550    -0.0550 hc         1 RNH       0.059200
     44 HAP         -6.5390     0.6100    -1.1880 h1         1 RNH       0.029200
     45 HAPA        -4.8440     0.8740    -1.6170 h1         1 RNH       0.029200
     46 HNAQ         1.6900     0.3400     0.1020 hn         1 RNH       0.310500
     47 HNAR        -2.5450    -0.6780     1.7430 hn         1 RNH       0.314500
     48 HOAS        -6.2100     2.6160    -2.2620 ho         1 RNH       0.444000
     49 HAV         -4.6890    -0.4750     1.9300 h1         1 RNH       0.068700
     50 HAY          9.0380     2.0990     0.7950 hc         1 RNH       0.036700
     51 HAYA         9.0390     0.7930     1.9790 hc         1 RNH       0.036700
     52 HAZ         10.8880    -0.3600     0.7160 hc         1 RNH       0.032367
     53 HAZA        10.8860     0.9580    -0.4790 hc         1 RNH       0.032367
     54 HAZB        11.3550     1.2830     1.2040 hc         1 RNH       0.032367
@<TRIPOS>BOND
     1     1     7 1   
     2     1    21 1   
     3     1    23 1   
     4     1    24 1   
     5     2    20 1   
     6     2    25 1   
     7     2    26 1   
     8     2    27 1   
     9     3    20 1   
    10     3    28 1   
    11     3    29 1   
    12     3    30 1   
    13     4    17 2   
    14     5    18 2   
    15     6    19 1   
    16     6    31 1   
    17     7     8 1   
    18     7    32 1   
    19     7    33 1   
    20     8     9 1   
    21     8    34 1   
    22     8    35 1   
    23     9    10 1   
    24     9    36 1   
    25     9    37 1   
    26    10    14 1   
    27    10    38 1   
    28    10    39 1   
    29    11    12 1   
    30    11    15 1   
    31    11    40 1   
    32    11    41 1   
    33    12    17 1   
    34    12    42 1   
    35    12    43 1   
    36    13    16 1   
    37    13    20 1   
    38    13    44 1   
    39    13    45 1   
    40    14    17 1   
    41    14    46 1   
    42    15    18 1   
    43    15    47 1   
    44    16    48 1   
    45    18    19 1   
    46    19    20 1   
    47    19    49 1   
    48    21    22 1   
    49    21    50 1   
    50    21    51 1   
    51    22    52 1   
    52    22    53 1   
    53    22    54 1   
@<TRIPOS>SUBSTRUCTURE
     1 RNH         1 TEMP              0 ****  ****    0 ROOT
