@<TRIPOS>MOLECULE
RNJ
   51    54     1     0     0
SMALL
abcg2


@<TRIPOS>ATOM
      1 C11         20.1200   -12.1400    42.2370 c6         1 RNJ      -0.076400
      2 C12         19.9760   -12.3000    43.7440 c6         1 RNJ      -0.074400
      3 C13         19.0570   -11.2170    44.2930 c6         1 RNJ      -0.076400
      4 C14         19.5260    -9.8380    43.8570 c6         1 RNJ       0.165300
      5 C16         19.7810   -10.5830    35.5840 ca         1 RNJ       0.174300
      6 C17         20.1630   -11.7520    36.2430 ca         1 RNJ      -0.230800
      7 C02         19.9810   -11.7130    37.6480 ca         1 RNJ       0.440900
      8 N03         19.4340   -10.6400    38.2180 nb         1 RNJ      -0.300000
      9 C04         19.0950    -9.6140    37.4560 ca         1 RNJ       0.289300
     10 S05         18.3230    -8.2120    38.1870 ss         1 RNJ      -0.328300
     11 C06         18.4890    -8.5210    39.9650 c3         1 RNJ       0.050600
     12 C07         19.8570    -8.1430    40.5070 c3         1 RNJ      -0.067400
     13 N09         19.6280    -9.7390    42.4110 n3         1 RNJ      -0.718600
     14 C10         20.5500   -10.7250    41.8780 c6         1 RNJ       0.165300
     15 N15         19.2520    -9.5020    36.1490 nb         1 RNJ      -0.174000
     16 C18         20.6880   -12.7400    35.3390 cc         1 RNJ      -0.013200
     17 C19         20.7230   -12.2860    34.0560 cd         1 RNJ      -0.088600
     18 C20         21.1680   -13.1360    32.9120 c6         1 RNJ      -0.002200
     19 C21         22.2350   -14.1290    33.3810 c6         1 RNJ      -0.031500
     20 C22         22.5360   -15.1560    32.2980 c3         1 RNJ      -0.086100
     21 C23         21.8210   -14.7740    34.6770 c2         1 RNJ      -0.197200
     22 C24         21.1140   -14.1130    35.5970 ce         1 RNJ      -0.171000
     23 S25         20.0960   -10.6830    33.8840 ss         1 RNJ      -0.087900
     24 H1          19.1640   -12.3590    41.7500 hc         1 RNJ       0.043700
     25 H2          20.8530   -12.8480    41.8430 hc         1 RNJ       0.043700
     26 H3          20.9620   -12.2090    44.2120 hc         1 RNJ       0.038200
     27 H4          19.6000   -13.2940    43.9950 hc         1 RNJ       0.038200
     28 H5          19.0190   -11.2560    45.3840 hc         1 RNJ       0.043700
     29 H6          18.0370   -11.3810    43.9330 hc         1 RNJ       0.043700
     30 H7          20.4940    -9.6130    44.3430 h1         1 RNJ       0.031200
     31 H8          18.8200    -9.0810    44.2070 h1         1 RNJ       0.031200
     32 H9          20.2210   -12.5960    39.4530 hn         1 RNJ       0.496500
     33 H10         20.9090   -13.4770    38.1580 hn         1 RNJ       0.496500
     34 H11         17.7070    -7.9150    40.4270 h1         1 RNJ       0.087700
     35 H12         18.2530    -9.5640    40.1620 h1         1 RNJ       0.087700
     36 H13         20.6350    -8.6850    39.9660 hc         1 RNJ       0.049700
     37 H14         20.0440    -7.0820    40.3260 hc         1 RNJ       0.049700
     38 H15         20.9870    -8.1100    42.3350 h1         1 RNJ       0.029700
     39 H16         19.2870    -7.7050    42.5230 h1         1 RNJ       0.029700
     40 H18         20.5860   -10.6270    40.7920 h1         1 RNJ       0.031200
     41 H19         21.5780   -10.5520    42.2460 h1         1 RNJ       0.031200
     42 H20         21.5610   -12.5330    32.0930 hc         1 RNJ       0.056700
     43 H21         20.3030   -13.6830    32.5130 hc         1 RNJ       0.056700
     44 H22         23.1560   -13.5620    33.5810 hc         1 RNJ       0.061700
     45 H23         23.3090   -15.8550    32.6200 hc         1 RNJ       0.036700
     46 H24         21.6440   -15.7340    32.0490 hc         1 RNJ       0.036700
     47 H25         22.8860   -14.6710    31.3860 hc         1 RNJ       0.036700
     48 H26         22.1410   -15.7910    34.8720 ha         1 RNJ       0.178000
     49 H27         20.8310   -14.6080    36.5170 ha         1 RNJ       0.173000
     50 C08         19.9700    -8.3880    42.0080 c3         1 RNJ       0.169800
     51 N01         20.3170   -12.7240    38.4590 nv         1 RNJ      -1.071900
@<TRIPOS>BOND
     1     1     2 1   
     2     1    14 1   
     3     1    24 1   
     4     1    25 1   
     5     2     3 1   
     6     2    26 1   
     7     2    27 1   
     8     3     4 1   
     9     3    28 1   
    10     3    29 1   
    11     4    13 1   
    12     4    30 1   
    13     4    31 1   
    14     5     6 ar  
    15     5    15 ar  
    16     5    23 1   
    17     6     7 ar  
    18     6    16 1   
    19     7     8 ar  
    20     7    51 1   
    21     8     9 ar  
    22     9    10 1   
    23     9    15 ar  
    24    10    11 1   
    25    11    12 1   
    26    11    34 1   
    27    11    35 1   
    28    12    36 1   
    29    12    37 1   
    30    12    50 1   
    31    13    14 1   
    32    13    50 1   
    33    14    40 1   
    34    14    41 1   
    35    16    17 2   
    36    16    22 1   
    37    17    18 1   
    38    17    23 1   
    39    18    19 1   
    40    18    42 1   
    41    18    43 1   
    42    19    20 1   
    43    19    21 1   
    44    19    44 1   
    45    20    45 1   
    46    20    46 1   
    47    20    47 1   
    48    21    22 2   
    49    21    48 1   
    50    22    49 1   
    51    32    51 1   
    52    33    51 1   
    53    38    50 1   
    54    39    50 1   
@<TRIPOS>SUBSTRUCTURE
     1 RNJ         1 TEMP              0 ****  ****    0 ROOT
