@<TRIPOS>MOLECULE
RNJ
   51    54     1     0     0
SMALL
No Charge or Current Charge


@<TRIPOS>ATOM
      1 C11         20.1460   -12.2870    41.9770 c6         1 RNJ      -0.076400
      2 C12         20.5170   -12.3740    43.4750 c6         1 RNJ      -0.074400
      3 C13         19.9030   -11.1810    44.2420 c6         1 RNJ      -0.076400
      4 C14         20.3010    -9.8360    43.5870 c6         1 RNJ       0.165300
      5 C16         19.6150   -10.4320    35.7500 ca         1 RNJ       0.174300
      6 C17         19.5460   -11.7300    36.2270 ca         1 RNJ      -0.230800
      7 C02         18.8140   -11.9310    37.4100 ca         1 RNJ       0.440900
      8 N03         18.1900   -10.9200    38.0280 nb         1 RNJ      -0.300000
      9 C04         18.3070    -9.6950    37.4670 ca         1 RNJ       0.289300
     10 S05         17.4970    -8.3370    38.2980 ss         1 RNJ      -0.328300
     11 C06         18.0890    -8.5040    40.0430 c3         1 RNJ       0.050600
     12 C07         19.6070    -8.2390    40.1360 c3         1 RNJ      -0.067400
     13 N09         19.9150    -9.7850    42.1490 n3         1 RNJ      -0.718600
     14 C10         20.5340   -10.9100    41.3850 c6         1 RNJ       0.165300
     15 N15         19.0020    -9.3960    36.3500 nb         1 RNJ      -0.174000
     16 C18         20.2810   -12.6790    35.4000 cc         1 RNJ      -0.013200
     17 C19         20.9510   -12.0030    34.3950 cd         1 RNJ      -0.088600
     18 C20         21.8800   -12.7350    33.4470 c6         1 RNJ      -0.002200
     19 C21         22.5290   -13.9690    34.1540 c6         1 RNJ      -0.031500
     20 C22         23.2330   -14.9110    33.1430 c3         1 RNJ      -0.086100
     21 C23         21.5030   -14.7460    34.9860 c2         1 RNJ      -0.197200
     22 C24         20.4510   -14.1170    35.5540 ce         1 RNJ      -0.171000
     23 S25         20.6190   -10.2540    34.3030 ss         1 RNJ      -0.087900
     24 H1          19.0660   -12.4460    41.8530 hc         1 RNJ       0.043700
     25 H2          20.6480   -13.0870    41.4180 hc         1 RNJ       0.043700
     26 H3          21.6100   -12.3650    43.5870 hc         1 RNJ       0.038200
     27 H4          20.1620   -13.3220    43.9000 hc         1 RNJ       0.038200
     28 H5          20.2330   -11.1980    45.2890 hc         1 RNJ       0.043700
     29 H6          18.8080   -11.2720    44.2560 hc         1 RNJ       0.043700
     30 H7          21.3870    -9.6930    43.6930 h1         1 RNJ       0.031200
     31 H8          19.8120    -9.0210    44.1410 h1         1 RNJ       0.031200
     32 H9          18.3150   -13.1120    38.9800 hn         1 RNJ       0.496500
     33 H10         19.4530   -13.7990    37.8930 hn         1 RNJ       0.496500
     34 H11         17.5510    -7.7860    40.6760 h1         1 RNJ       0.087700
     35 H12         17.8590    -9.5140    40.4050 h1         1 RNJ       0.087700
     36 H13         20.1440    -8.8800    39.4280 hc         1 RNJ       0.049700
     37 H14         19.8070    -7.2060    39.8270 hc         1 RNJ       0.049700
     38 H15         21.2580    -8.2570    41.5300 h1         1 RNJ       0.029700
     39 H16         19.7340    -7.6760    42.2030 h1         1 RNJ       0.029700
     40 H18         20.2110   -10.8960    40.3350 h1         1 RNJ       0.031200
     41 H19         21.6300   -10.8130    41.3870 h1         1 RNJ       0.031200
     42 H20         22.6640   -12.0640    33.0710 hc         1 RNJ       0.056700
     43 H21         21.3100   -13.0690    32.5700 hc         1 RNJ       0.056700
     44 H22         23.3080   -13.6030    34.8380 hc         1 RNJ       0.061700
     45 H23         23.7430   -15.7350    33.6570 hc         1 RNJ       0.036700
     46 H24         22.5160   -15.3480    32.4380 hc         1 RNJ       0.036700
     47 H25         23.9880   -14.3690    32.5590 hc         1 RNJ       0.036700
     48 H26         21.6460   -15.8230    35.0970 ha         1 RNJ       0.178000
     49 H27         19.7100   -14.6630    36.1370 ha         1 RNJ       0.173000
     50 C08         20.1760    -8.4480    41.5570 c3         1 RNJ       0.169800
     51 N01         18.7120   -13.1240    38.0450 nv         1 RNJ      -1.071900
@<TRIPOS>BOND
     1     1     2 1   
     2     1    14 1   
     3     1    24 1   
     4     1    25 1   
     5     2     3 1   
     6     2    26 1   
     7     2    27 1   
     8     3     4 1   
     9     3    28 1   
    10     3    29 1   
    11     4    13 1   
    12     4    30 1   
    13     4    31 1   
    14     5     6 ar  
    15     5    15 ar  
    16     5    23 1   
    17     6     7 ar  
    18     6    16 1   
    19     7     8 ar  
    20     7    51 1   
    21     8     9 ar  
    22     9    10 1   
    23     9    15 ar  
    24    10    11 1   
    25    11    12 1   
    26    11    34 1   
    27    11    35 1   
    28    12    36 1   
    29    12    37 1   
    30    12    50 1   
    31    13    14 1   
    32    13    50 1   
    33    14    40 1   
    34    14    41 1   
    35    16    17 2   
    36    16    22 1   
    37    17    18 1   
    38    17    23 1   
    39    18    19 1   
    40    18    42 1   
    41    18    43 1   
    42    19    20 1   
    43    19    21 1   
    44    19    44 1   
    45    20    45 1   
    46    20    46 1   
    47    20    47 1   
    48    21    22 2   
    49    21    48 1   
    50    22    49 1   
    51    32    51 1   
    52    33    51 1   
    53    38    50 1   
    54    39    50 1   
@<TRIPOS>SUBSTRUCTURE
     1 RNJ         1 TEMP              0 ****  ****    0 ROOT
