@<TRIPOS>MOLECULE
RNK
   29    30     1     0     0
SMALL
No Charge or Current Charge


@<TRIPOS>ATOM
      1 C17          0.9870     0.4350    -0.1300 cc         1 RNK       0.154400
      2 C22          5.1430     1.2400    -0.0740 c3         1 RNK       0.098300
      3 C26          3.2990    -0.4140     0.1650 c          1 RNK       0.567200
      4 C28          1.8300    -0.6220     0.1290 cd         1 RNK      -0.159200
      5 C05         -3.3100     0.2160     1.0630 cc         1 RNK      -0.063300
      6 C06         -4.5820    -0.3760     0.8500 cc         1 RNK      -0.136000
      7 C08         -4.9870    -0.4030    -0.4580 cd         1 RNK      -0.228000
      8 S10         -3.7740     0.3290    -1.5160 ss         1 RNK       0.224000
      9 C11         -2.7370     0.6450    -0.1120 cd         1 RNK      -0.269300
     10 C12         -1.4090     1.3180    -0.3020 c3         1 RNK       0.309100
     11 N15         -0.3930     0.2770    -0.1710 nu         1 RNK      -0.816200
     12 C18          1.5820     1.7390    -0.3640 cc         1 RNK       0.302500
     13 N20          2.8830     2.0350    -0.3560 nd         1 RNK      -0.396300
     14 N21          3.6970     0.9290    -0.0870 n          1 RNK      -0.132800
     15 O27          4.1030    -1.3130     0.3910 o          1 RNK      -0.535000
     16 Cl2          1.2470    -2.2430     0.4310 cl         1 RNK      -0.161000
     17 H1           5.6560     0.6430    -0.8380 h1         1 RNK       0.057033
     18 H2           5.3140     2.3040    -0.2820 h1         1 RNK       0.057033
     19 H3           5.5630     1.0000     0.9110 h1         1 RNK       0.057033
     20 H4          -1.8100    -0.2850     2.5280 hc         1 RNK       0.048033
     21 H5          -2.4400     1.3660     2.6650 hc         1 RNK       0.048033
     22 H6          -3.4190    -0.0030     3.2140 hc         1 RNK       0.048033
     23 H7          -5.1780    -0.7730     1.6680 ha         1 RNK       0.138000
     24 H8          -5.9070    -0.7980    -0.8720 h4         1 RNK       0.155000
     25 H9          -1.3610     1.7880    -1.2940 h1         1 RNK       0.054200
     26 H10         -1.2740     2.0960     0.4630 h1         1 RNK       0.054200
     27 H11         -0.7370    -0.6640     0.0290 hn         1 RNK       0.515000
     28 H12          0.9680     2.6020    -0.5750 h4         1 RNK       0.044800
     29 C01         -2.7140     0.3290     2.4420 c3         1 RNK      -0.034800
@<TRIPOS>BOND
     1     1     4 2   
     2     1    11 1   
     3     1    12 1   
     4     2    14 1   
     5     2    17 1   
     6     2    18 1   
     7     2    19 1   
     8     3     4 1   
     9     3    14 1   
    10     3    15 2   
    11     4    16 1   
    12     5     6 1   
    13     5     9 2   
    14     5    29 1   
    15     6     7 2   
    16     6    23 1   
    17     7     8 1   
    18     7    24 1   
    19     8     9 1   
    20     9    10 1   
    21    10    11 1   
    22    10    25 1   
    23    10    26 1   
    24    11    27 1   
    25    12    13 2   
    26    12    28 1   
    27    13    14 1   
    28    20    29 1   
    29    21    29 1   
    30    22    29 1   
@<TRIPOS>SUBSTRUCTURE
     1 RNK         1 TEMP              0 ****  ****    0 ROOT
