@<TRIPOS>MOLECULE
RNK
   29    30     1     0     0
SMALL
bcc


@<TRIPOS>ATOM
      1 C17          0.9910     0.3420    -0.0840 cc         1 RNK       0.154400
      2 C22          5.0660     1.3170    -0.1160 c3         1 RNK       0.098300
      3 C26          3.3350    -0.3980     0.0290 c          1 RNK       0.709700
      4 C28          1.9310    -0.6570     0.0370 cd         1 RNK      -0.234800
      5 C05         -3.3540     0.2720     1.0830 cc         1 RNK      -0.063300
      6 C06         -4.6280    -0.3100     0.8160 cc         1 RNK      -0.154000
      7 C08         -4.9040    -0.4150    -0.5120 cd         1 RNK      -0.101100
      8 S10         -3.6210     0.1910    -1.4660 ss         1 RNK      -0.065800
      9 C11         -2.6980     0.6020    -0.0700 cd         1 RNK      -0.124400
     10 C12         -1.3300     1.1810    -0.2050 c3         1 RNK       0.309100
     11 N15         -0.3310     0.1330    -0.0750 nu         1 RNK      -0.761000
     12 C18          1.5280     1.6660    -0.2230 cc         1 RNK       0.302500
     13 N20          2.7900     1.9230    -0.2280 nd         1 RNK      -0.396300
     14 N21          3.6620     0.9440    -0.1070 n          1 RNK      -0.199800
     15 O27          4.2160    -1.2440     0.1290 o          1 RNK      -0.610500
     16 CL2          1.4500    -2.3000     0.2090 cl         1 RNK      -0.085400
     17 H1           5.5880     0.8450    -0.9470 h1         1 RNK       0.057033
     18 H2           5.1210     2.3950    -0.2250 h1         1 RNK       0.057033
     19 H3           5.5500     1.0240     0.8140 h1         1 RNK       0.057033
     20 H4          -2.3560    -0.4580     2.8360 hc         1 RNK       0.048033
     21 H5          -2.0480     1.2400     2.5040 hc         1 RNK       0.048033
     22 H6          -3.6030     0.7360     3.1590 hc         1 RNK       0.048033
     23 H7          -5.3120    -0.6270     1.5920 ha         1 RNK       0.156000
     24 H8          -5.7940    -0.8080    -0.9780 h4         1 RNK       0.173000
     25 H9          -1.2270     1.6920    -1.1670 h1         1 RNK       0.054200
     26 H10         -1.1830     1.9380     0.5700 h1         1 RNK       0.054200
     27 H11         -0.6670    -0.8140     0.0100 hn         1 RNK       0.459800
     28 H12          0.8780     2.5240    -0.3290 h4         1 RNK       0.044800
     29 C01         -2.8100     0.4620     2.4640 c3         1 RNK      -0.034800
@<TRIPOS>BOND
     1     1     4 2   
     2     1    11 1   
     3     1    12 1   
     4     2    14 1   
     5     2    17 1   
     6     2    18 1   
     7     2    19 1   
     8     3     4 1   
     9     3    14 1   
    10     3    15 2   
    11     4    16 1   
    12     5     6 1   
    13     5     9 2   
    14     5    29 1   
    15     6     7 2   
    16     6    23 1   
    17     7     8 1   
    18     7    24 1   
    19     8     9 1   
    20     9    10 1   
    21    10    11 1   
    22    10    25 1   
    23    10    26 1   
    24    11    27 1   
    25    12    13 2   
    26    12    28 1   
    27    13    14 1   
    28    20    29 1   
    29    21    29 1   
    30    22    29 1   
@<TRIPOS>SUBSTRUCTURE
     1 RNK         1 TEMP              0 ****  ****    0 ROOT
