@<TRIPOS>MOLECULE
RNL
   36    38     1     0     0
SMALL
No Charge or Current Charge


@<TRIPOS>ATOM
      1 N1         -50.4850   -29.1640     7.5390 n          1 RNL      -0.317000
      2 O4         -43.3770   -31.6380     4.0550 o          1 RNL      -0.732000
      3 C13        -51.2800   -28.8220     6.4180 c          1 RNL       0.497500
      4 O2         -44.8680   -28.4890     1.7480 o          1 RNL      -0.621100
      5 C12        -50.5340   -29.0120     5.1560 cc         1 RNL       0.305000
      6 O3         -52.4380   -28.4210     6.5130 o          1 RNL      -0.518000
      7 C10        -43.0920   -31.5490     1.7080 cx         1 RNL      -0.209700
      8 C9         -42.3670   -30.2160     1.6830 cx         1 RNL      -0.093400
      9 C8         -43.6510   -30.3840     0.8950 cx         1 RNL      -0.232700
     10 C7         -44.8880   -29.6510     1.3660 c          1 RNL       0.660100
     11 C6         -47.3600   -29.9330     1.7290 c3         1 RNL       0.124000
     12 C4         -48.8490   -29.5230     3.7660 cc         1 RNL       0.438800
     13 C3         -48.4770   -29.7920     6.1860 cc         1 RNL      -0.172100
     14 C2         -49.1580   -29.6220     7.3950 cd         1 RNL      -0.105400
     15 C1         -51.0870   -29.0290     8.8860 c3         1 RNL       0.093300
     16 O1         -44.7370   -32.7820     2.8390 o          1 RNL      -0.732000
     17 N2         -49.2550   -29.4550     5.0670 na         1 RNL      -0.259900
     18 N3         -46.0400   -30.3910     1.2960 ns         1 RNL      -0.507900
     19 N4         -49.8880   -29.1180     3.0410 nd         1 RNL      -0.379000
     20 N5         -50.9370   -28.7990     3.9040 nd         1 RNL      -0.298000
     21 H2         -42.6300   -32.3550     1.1440 hc         1 RNL       0.060700
     22 H14        -41.4350   -30.1580     1.1260 hc         1 RNL       0.069200
     23 H13        -42.3950   -29.5960     2.5770 hc         1 RNL       0.069200
     24 H1         -43.5520   -30.4520    -0.1850 hc         1 RNL       0.061700
     25 H10        -47.5220   -28.9100     1.3620 h1         1 RNL       0.056700
     26 H11        -48.1200   -30.5810     1.2740 h1         1 RNL       0.056700
     27 H9         -47.3100   -30.9870     3.6140 hc         1 RNL       0.092700
     28 H8         -46.7320   -29.3280     3.7090 hc         1 RNL       0.092700
     29 H7         -47.4540   -30.1440     6.0640 h4         1 RNL       0.255000
     30 H6         -48.6830   -29.8430     8.3490 h4         1 RNL       0.213000
     31 H3         -50.3720   -29.3230     9.6640 h1         1 RNL       0.048033
     32 H4         -51.3840   -27.9870     9.0550 h1         1 RNL       0.048033
     33 H5         -51.9740   -29.6720     8.9600 h1         1 RNL       0.048033
     34 H12        -45.9320   -31.3530     0.9950 hn         1 RNL       0.318500
     35 C5         -47.5020   -29.9670     3.2640 c3         1 RNL      -0.151700
     36 C11        -43.8050   -32.0060     2.9720 c          1 RNL       0.720000
@<TRIPOS>BOND
     1     1     3 1   
     2     1    14 1   
     3     1    15 1   
     4     2    36 1   
     5     3     5 1   
     6     3     6 2   
     7     4    10 2   
     8     5    17 1   
     9     5    20 2   
    10     7     8 1   
    11     7     9 1   
    12     7    21 1   
    13     7    36 1   
    14     8     9 1   
    15     8    22 1   
    16     8    23 1   
    17     9    10 1   
    18     9    24 1   
    19    10    18 1   
    20    11    18 1   
    21    11    25 1   
    22    11    26 1   
    23    11    35 1   
    24    12    17 1   
    25    12    19 2   
    26    12    35 1   
    27    13    14 2   
    28    13    17 1   
    29    13    29 1   
    30    14    30 1   
    31    15    31 1   
    32    15    32 1   
    33    15    33 1   
    34    16    36 1   
    35    18    34 1   
    36    19    20 1   
    37    27    35 1   
    38    28    35 1   
@<TRIPOS>SUBSTRUCTURE
     1 RNL         1 TEMP              0 ****  ****    0 ROOT
