@<TRIPOS>MOLECULE
RNL
   36    38     1     0     0
SMALL
abcg2


@<TRIPOS>ATOM
      1 N1         -50.4790   -29.2450     7.4890 n          1 RNL      -0.317000
      2 O4         -43.8570   -30.7320     3.9090 o          1 RNL      -0.732000
      3 C13        -51.1370   -28.7120     6.3990 c          1 RNL       0.497500
      4 O2         -44.8870   -28.5070     1.5730 o          1 RNL      -0.621100
      5 C12        -50.4060   -28.8460     5.1430 cc         1 RNL       0.305000
      6 O3         -52.2360   -28.1770     6.4920 o          1 RNL      -0.518000
      7 C10        -43.0950   -31.5340     1.7970 cx         1 RNL      -0.209700
      8 C9         -42.3890   -30.2530     1.4270 cx         1 RNL      -0.093400
      9 C8         -43.7440   -30.5130     0.8720 cx         1 RNL      -0.232700
     10 C7         -44.9370   -29.7090     1.3140 c          1 RNL       0.660100
     11 C6         -47.3530   -29.8550     1.7780 c3         1 RNL       0.124000
     12 C4         -48.7900   -29.4140     3.7940 cc         1 RNL       0.438800
     13 C3         -48.5670   -29.9660     6.2440 cc         1 RNL      -0.172100
     14 C2         -49.2350   -29.8460     7.4000 cd         1 RNL      -0.105400
     15 C1         -51.1530   -29.1490     8.7860 c3         1 RNL       0.093300
     16 O1         -43.8690   -32.9440     3.5210 o          1 RNL      -0.732000
     17 N2         -49.1760   -29.4560     5.1040 na         1 RNL      -0.259900
     18 N3         -46.0910   -30.4110     1.3320 ns         1 RNL      -0.507900
     19 N4         -49.7350   -28.8140     3.0940 nd         1 RNL      -0.379000
     20 N5         -50.7530   -28.4540     3.9370 nd         1 RNL      -0.298000
     21 H2         -42.7640   -32.4410     1.3090 hc         1 RNL       0.060700
     22 H14        -41.5410   -30.3100     0.7580 hc         1 RNL       0.069200
     23 H13        -42.3220   -29.5110     2.2110 hc         1 RNL       0.069200
     24 H1         -43.8110   -30.8180    -0.1660 hc         1 RNL       0.061700
     25 H10        -47.3950   -28.8100     1.4760 h1         1 RNL       0.056700
     26 H11        -48.1600   -30.3840     1.2740 h1         1 RNL       0.056700
     27 H9         -47.4390   -31.0250     3.5890 hc         1 RNL       0.092700
     28 H8         -46.6760   -29.4610     3.7880 hc         1 RNL       0.092700
     29 H7         -47.6000   -30.4280     6.1480 h4         1 RNL       0.255000
     30 H6         -48.8220   -30.2200     8.3240 h4         1 RNL       0.213000
     31 H3         -50.5440   -29.6500     9.5320 h1         1 RNL       0.048033
     32 H4         -51.2840   -28.1030     9.0610 h1         1 RNL       0.048033
     33 H5         -52.1310   -29.6240     8.7300 h1         1 RNL       0.048033
     34 H12        -46.0340   -31.4090     1.2020 hn         1 RNL       0.318500
     35 C5         -47.5080   -29.9730     3.2960 c3         1 RNL      -0.151700
     36 C11        -43.6490   -31.7470     3.1960 c          1 RNL       0.720000
@<TRIPOS>BOND
     1     1     3 1   
     2     1    14 1   
     3     1    15 1   
     4     2    36 1   
     5     3     5 1   
     6     3     6 2   
     7     4    10 2   
     8     5    17 1   
     9     5    20 2   
    10     7     8 1   
    11     7     9 1   
    12     7    21 1   
    13     7    36 1   
    14     8     9 1   
    15     8    22 1   
    16     8    23 1   
    17     9    10 1   
    18     9    24 1   
    19    10    18 1   
    20    11    18 1   
    21    11    25 1   
    22    11    26 1   
    23    11    35 1   
    24    12    17 1   
    25    12    19 2   
    26    12    35 1   
    27    13    14 2   
    28    13    17 1   
    29    13    29 1   
    30    14    30 1   
    31    15    31 1   
    32    15    32 1   
    33    15    33 1   
    34    16    36 1   
    35    18    34 1   
    36    19    20 1   
    37    27    35 1   
    38    28    35 1   
@<TRIPOS>SUBSTRUCTURE
     1 RNL         1 TEMP              0 ****  ****    0 ROOT
