@<TRIPOS>MOLECULE
RNM
   50    53     1     0     0
SMALL
No Charge or Current Charge


@<TRIPOS>ATOM
      1 N01         22.8810   -10.6260    37.2750 nv         1 RNM      -1.073900
      2 C02         21.5690   -10.3420    37.0910 ca         1 RNM       0.442900
      3 N03         21.1270    -9.2870    37.7870 nb         1 RNM      -0.308000
      4 C04         19.8280    -8.9510    37.6260 ca         1 RNM       0.288300
      5 S05         19.2100    -7.5670    38.5760 ss         1 RNM      -0.315300
      6 C06         19.9630    -7.7890    40.2580 c3         1 RNM       0.038600
      7 C07         19.2470    -8.8420    41.1560 c6         1 RNM      -0.055700
      8 C08         19.8240    -8.8060    42.5960 c6         1 RNM      -0.073400
      9 C09         19.1480    -9.8730    43.4860 c6         1 RNM      -0.074400
     10 C10         19.2530   -11.2750    42.8430 c6         1 RNM       0.164800
     11 N11         18.6670   -11.2860    41.4760 n3         1 RNM      -0.712600
     12 C12         18.6530   -12.6390    40.8820 c3         1 RNM       0.154100
     13 C13         19.3240   -10.2880    40.5850 c6         1 RNM       0.165800
     14 N14         18.9420    -9.5710    36.8180 nb         1 RNM      -0.173000
     15 C15         19.4170   -10.6260    36.1350 ca         1 RNM       0.180300
     16 C16         20.7230   -11.0660    36.2340 ca         1 RNM      -0.243800
     17 C17         21.0100   -12.2330    35.4070 cc         1 RNM      -0.043400
     18 C18         19.8700   -12.5830    34.6870 cd         1 RNM      -0.076600
     19 C19         19.8060   -13.7350    33.7070 c6         1 RNM      -0.005200
     20 C20         21.2200   -14.1900    33.2640 c6         1 RNM      -0.058700
     21 C21         21.1610   -15.4970    32.4290 c3         1 RNM      -0.088100
     22 C22         22.1340   -14.3400    34.5040 c6         1 RNM      -0.069400
     23 C23         22.3150   -12.9930    35.2490 c6         1 RNM      -0.016200
     24 S24         18.4330   -11.5770    35.0190 ss         1 RNM      -0.107900
     25 H1          23.4550    -9.9240    37.7320 hn         1 RNM       0.498000
     26 H2          23.3450   -11.2150    36.5920 hn         1 RNM       0.498000
     27 H3          21.0260    -8.0460    40.1580 h1         1 RNM       0.081200
     28 H4          19.9090    -6.8180    40.7680 h1         1 RNM       0.081200
     29 H5          18.1890    -8.5470    41.1980 hc         1 RNM       0.070700
     30 H6          20.9080    -8.9860    42.5690 hc         1 RNM       0.038200
     31 H7          19.6820    -7.8100    43.0390 hc         1 RNM       0.038200
     32 H8          19.6150    -9.8840    44.4800 hc         1 RNM       0.046700
     33 H9          18.0910    -9.6160    43.6380 hc         1 RNM       0.046700
     34 H10         18.7310   -11.9980    43.4860 h1         1 RNM       0.027700
     35 H11         20.3110   -11.5760    42.8060 h1         1 RNM       0.027700
     36 H13         18.1070   -13.3410    41.5270 h1         1 RNM       0.029367
     37 H14         18.1580   -12.6270    39.9010 h1         1 RNM       0.029367
     38 H15         19.6750   -13.0190    40.7470 h1         1 RNM       0.029367
     39 H16         18.8310   -10.3100    39.6040 h1         1 RNM       0.039200
     40 H17         20.3790   -10.5580    40.4260 h1         1 RNM       0.039200
     41 H18         19.2150   -13.4530    32.8250 hc         1 RNM       0.053700
     42 H19         19.2760   -14.5760    34.1740 hc         1 RNM       0.053700
     43 H20         21.6460   -13.4190    32.6060 hc         1 RNM       0.052700
     44 H21         22.1590   -15.7890    32.0800 hc         1 RNM       0.035367
     45 H22         20.7560   -16.3300    33.0160 hc         1 RNM       0.035367
     46 H23         20.5260   -15.3720    31.5430 hc         1 RNM       0.035367
     47 H24         21.7030   -15.0820    35.1900 hc         1 RNM       0.044200
     48 H25         23.1190   -14.7280    34.2080 hc         1 RNM       0.044200
     49 H26         22.7700   -13.1960    36.2270 hc         1 RNM       0.043700
     50 H27         23.0340   -12.3750    34.6940 hc         1 RNM       0.043700
@<TRIPOS>BOND
     1     1     2 1   
     2     1    25 1   
     3     1    26 1   
     4     2     3 ar  
     5     2    16 ar  
     6     3     4 ar  
     7     4     5 1   
     8     4    14 ar  
     9     5     6 1   
    10     6     7 1   
    11     6    27 1   
    12     6    28 1   
    13     7     8 1   
    14     7    13 1   
    15     7    29 1   
    16     8     9 1   
    17     8    30 1   
    18     8    31 1   
    19     9    10 1   
    20     9    32 1   
    21     9    33 1   
    22    10    11 1   
    23    10    34 1   
    24    10    35 1   
    25    11    12 1   
    26    11    13 1   
    27    12    36 1   
    28    12    37 1   
    29    12    38 1   
    30    13    39 1   
    31    13    40 1   
    32    14    15 ar  
    33    15    16 ar  
    34    15    24 1   
    35    16    17 1   
    36    17    18 2   
    37    17    23 1   
    38    18    19 1   
    39    18    24 1   
    40    19    20 1   
    41    19    41 1   
    42    19    42 1   
    43    20    21 1   
    44    20    22 1   
    45    20    43 1   
    46    21    44 1   
    47    21    45 1   
    48    21    46 1   
    49    22    23 1   
    50    22    47 1   
    51    22    48 1   
    52    23    49 1   
    53    23    50 1   
@<TRIPOS>SUBSTRUCTURE
     1 RNM         1 TEMP              0 ****  ****    0 ROOT
