@<TRIPOS>MOLECULE
RNM
   50    53     1     0     0
SMALL
bcc


@<TRIPOS>ATOM
      1 N01         22.3600   -11.4460    37.7210 nv         1 RNM      -0.963500
      2 C02         21.1880   -10.9850    37.2730 ca         1 RNM       0.771200
      3 N03         20.5990   -10.0340    38.0010 nb         1 RNM      -0.834000
      4 C04         19.4350    -9.5560    37.6030 ca         1 RNM       0.814300
      5 S05         18.6450    -8.2890    38.5380 ss         1 RNM      -0.267400
      6 C06         19.6720    -8.1010    40.0220 c3         1 RNM      -0.009300
      7 C07         19.1510    -8.8530    41.2410 c6         1 RNM      -0.055700
      8 C08         19.9500    -8.4480    42.4790 c6         1 RNM      -0.073400
      9 C09         19.4760    -9.2300    43.6970 c6         1 RNM      -0.074400
     10 C10         19.5080   -10.7240    43.4210 c6         1 RNM       0.164800
     11 N11         18.7200   -11.0530    42.2480 n3         1 RNM      -0.712600
     12 C12         18.6700   -12.4810    42.0330 c3         1 RNM       0.154100
     13 C13         19.2110   -10.3660    41.0680 c6         1 RNM       0.165800
     14 N14         18.7520    -9.8960    36.5240 nb         1 RNM      -0.699000
     15 C15         19.3470   -10.8380    35.7980 ca         1 RNM       0.508600
     16 C16         20.5600   -11.4590    36.0930 ca         1 RNM      -0.374400
     17 C17         20.9280   -12.4500    35.1160 cc         1 RNM      -0.043400
     18 C18         20.0170   -12.5360    34.1160 cd         1 RNM      -0.076600
     19 C19         20.1060   -13.4340    32.9270 c6         1 RNM      -0.005200
     20 C20         21.5340   -13.9560    32.7540 c6         1 RNM      -0.058700
     21 C21         21.5830   -15.0550    31.7020 c3         1 RNM      -0.088100
     22 C22         22.0710   -14.4370    34.0990 c6         1 RNM      -0.069400
     23 C23         22.1540   -13.3150    35.1300 c6         1 RNM      -0.016200
     24 S24         18.6730   -11.4480    34.3280 ss         1 RNM      -0.107900
     25 H1          22.7840   -11.0000    38.5160 hn         1 RNM       0.442800
     26 H2          22.9350   -12.0660    37.1790 hn         1 RNM       0.442800
     27 H3          20.6910    -8.3970    39.7730 h1         1 RNM       0.081200
     28 H4          19.6790    -7.0290    40.2250 h1         1 RNM       0.081200
     29 H5          18.1040    -8.5710    41.4010 hc         1 RNM       0.070700
     30 H6          21.0120    -8.6550    42.3040 hc         1 RNM       0.038200
     31 H7          19.8620    -7.3720    42.6520 hc         1 RNM       0.038200
     32 H8          20.1020    -9.0050    44.5630 hc         1 RNM       0.046700
     33 H9          18.4550    -8.9320    43.9520 hc         1 RNM       0.046700
     34 H10         19.1040   -11.2710    44.2770 h1         1 RNM       0.027700
     35 H11         20.5580   -11.0510    43.3030 h1         1 RNM       0.027700
     36 H13         18.2660   -12.9800    42.9150 h1         1 RNM       0.029367
     37 H14         18.0160   -12.7130    41.1910 h1         1 RNM       0.029367
     38 H15         19.6570   -12.9240    41.8220 h1         1 RNM       0.029367
     39 H16         18.5960   -10.6680    40.2150 h1         1 RNM       0.039200
     40 H17         20.2490   -10.6610    40.8270 h1         1 RNM       0.039200
     41 H18         19.7920   -12.9030    32.0240 hc         1 RNM       0.053700
     42 H19         19.4120   -14.2760    33.0390 hc         1 RNM       0.053700
     43 H20         22.1570   -13.1200    32.4150 hc         1 RNM       0.052700
     44 H21         22.6080   -15.3770    31.5150 hc         1 RNM       0.035367
     45 H22         21.0120   -15.9290    32.0240 hc         1 RNM       0.035367
     46 H23         21.1630   -14.7160    30.7530 hc         1 RNM       0.035367
     47 H24         21.4200   -15.2330    34.4750 hc         1 RNM       0.044200
     48 H25         23.0620   -14.8800    33.9740 hc         1 RNM       0.044200
     49 H26         22.2930   -13.7580    36.1210 hc         1 RNM       0.043700
     50 H27         23.0400   -12.6980    34.9400 hc         1 RNM       0.043700
@<TRIPOS>BOND
     1     1     2 1   
     2     1    25 1   
     3     1    26 1   
     4     2     3 ar  
     5     2    16 ar  
     6     3     4 ar  
     7     4     5 1   
     8     4    14 ar  
     9     5     6 1   
    10     6     7 1   
    11     6    27 1   
    12     6    28 1   
    13     7     8 1   
    14     7    13 1   
    15     7    29 1   
    16     8     9 1   
    17     8    30 1   
    18     8    31 1   
    19     9    10 1   
    20     9    32 1   
    21     9    33 1   
    22    10    11 1   
    23    10    34 1   
    24    10    35 1   
    25    11    12 1   
    26    11    13 1   
    27    12    36 1   
    28    12    37 1   
    29    12    38 1   
    30    13    39 1   
    31    13    40 1   
    32    14    15 ar  
    33    15    16 ar  
    34    15    24 1   
    35    16    17 1   
    36    17    18 2   
    37    17    23 1   
    38    18    19 1   
    39    18    24 1   
    40    19    20 1   
    41    19    41 1   
    42    19    42 1   
    43    20    21 1   
    44    20    22 1   
    45    20    43 1   
    46    21    44 1   
    47    21    45 1   
    48    21    46 1   
    49    22    23 1   
    50    22    47 1   
    51    22    48 1   
    52    23    49 1   
    53    23    50 1   
@<TRIPOS>SUBSTRUCTURE
     1 RNM         1 TEMP              0 ****  ****    0 ROOT
