@<TRIPOS>MOLECULE
RNN
   52    52     1     0     0
SMALL
No Charge or Current Charge


@<TRIPOS>ATOM
      1 C1           0.6300     1.7440    -0.2990 ca         1 RNN      -0.102500
      2 C2          -0.6310     1.7390     0.3220 ca         1 RNN      -0.102500
      3 C3           0.6310    -0.6860    -0.3170 ca         1 RNN      -0.102500
      4 C4          -0.6300    -0.6910     0.3040 ca         1 RNN      -0.102500
      5 C5           1.2680     0.5310    -0.6230 ca         1 RNN      -0.086300
      6 C6          -1.2680     0.5210     0.6280 ca         1 RNN      -0.086300
      7 C7           6.2800    -2.3550    -0.2210 c3         1 RNN      -0.075350
      8 C8           7.6120    -1.3760     1.7410 c3         1 RNN      -0.075350
      9 C9          -6.2780    -2.3640     0.1860 c3         1 RNN      -0.075350
     10 C10         -7.6100    -1.3590    -1.7630 c3         1 RNN      -0.075350
     11 C11          2.6380     0.5360    -1.2890 c3         1 RNN      -0.034100
     12 C12         -2.6380     0.5150     1.2940 c3         1 RNN      -0.034100
     13 C13          3.7800     0.4940    -0.2560 c3         1 RNN       0.204800
     14 C14         -3.7800     0.4870     0.2610 c3         1 RNN       0.204800
     15 C15          6.4050    -1.1790     0.7870 c3         1 RNN      -0.307700
     16 C16         -6.4040    -1.1740    -0.8060 c3         1 RNN      -0.307700
     17 N17          5.0850     0.5060    -0.9410 n7         1 RNN      -0.876800
     18 N18         -5.0850     0.4880     0.9460 n7         1 RNN      -0.876800
     19 O19          6.3440     1.5150     0.9800 o          1 RNN      -0.525500
     20 O20          7.5810     0.4920    -0.9830 o          1 RNN      -0.525500
     21 O21         -6.3450     1.5220    -0.9620 o          1 RNN      -0.525500
     22 O22         -7.5810     0.4710     0.9870 o          1 RNN      -0.525500
     23 S23          6.4760     0.4560    -0.0230 s6         1 RNN       1.174100
     24 S24         -6.4750     0.4490     0.0270 s6         1 RNN       1.174100
     25 H1           1.1110     2.6920    -0.5270 ha         1 RNN       0.115500
     26 H2          -1.1130     2.6830     0.5640 ha         1 RNN       0.115500
     27 H3           1.1130    -1.6310    -0.5590 ha         1 RNN       0.115500
     28 H4          -1.1110    -1.6400     0.5330 ha         1 RNN       0.115500
     29 H7           5.3560    -2.2890    -0.8080 hc         1 RNN       0.050450
     30 H7A          7.1310    -2.3760    -0.9130 hc         1 RNN       0.050450
     31 H7B          6.2570    -3.3140     0.3110 hc         1 RNN       0.050450
     32 H8           8.5580    -1.3830     1.1840 hc         1 RNN       0.050450
     33 H8A          7.6600    -0.5720     2.4870 hc         1 RNN       0.050450
     34 H8B          7.5280    -2.3270     2.2810 hc         1 RNN       0.050450
     35 H9          -6.2540    -3.3160    -0.3600 hc         1 RNN       0.050450
     36 H9A         -5.3540    -2.3060     0.7740 hc         1 RNN       0.050450
     37 H9B         -7.1290    -2.3950     0.8780 hc         1 RNN       0.050450
     38 H10         -7.6580    -0.5450    -2.4970 hc         1 RNN       0.050450
     39 H10A        -7.5260    -2.3020    -2.3160 hc         1 RNN       0.050450
     40 H10B        -8.5560    -1.3750    -1.2070 hc         1 RNN       0.050450
     41 H11          2.7290    -0.3230    -1.9650 hc         1 RNN       0.059700
     42 H11A         2.7520     1.4320    -1.9120 hc         1 RNN       0.059700
     43 H12         -2.7280    -0.3530     1.9580 hc         1 RNN       0.059700
     44 H12A        -2.7530     1.4020     1.9290 hc         1 RNN       0.059700
     45 H13          3.6840     1.3670     0.4050 h1         1 RNN       0.054200
     46 H13A         3.6620    -0.4060     0.3620 h1         1 RNN       0.054200
     47 H14         -3.6840     1.3680    -0.3880 h1         1 RNN       0.054200
     48 H14A        -3.6610    -0.4050    -0.3700 h1         1 RNN       0.054200
     49 H15          5.4990    -1.1490     1.4020 h1         1 RNN       0.088700
     50 H16         -5.4970    -1.1350    -1.4200 h1         1 RNN       0.088700
     51 HN17         5.1820    -0.3490    -1.4850 hn         1 RNN       0.483000
     52 HN18        -5.1810    -0.3740     1.4770 hn         1 RNN       0.483000
@<TRIPOS>BOND
     1     1     2 ar  
     2     1     5 ar  
     3     1    25 1   
     4     2     6 ar  
     5     2    26 1   
     6     3     4 ar  
     7     3     5 ar  
     8     3    27 1   
     9     4     6 ar  
    10     4    28 1   
    11     5    11 1   
    12     6    12 1   
    13     7    15 1   
    14     7    29 1   
    15     7    30 1   
    16     7    31 1   
    17     8    15 1   
    18     8    32 1   
    19     8    33 1   
    20     8    34 1   
    21     9    16 1   
    22     9    35 1   
    23     9    36 1   
    24     9    37 1   
    25    10    16 1   
    26    10    38 1   
    27    10    39 1   
    28    10    40 1   
    29    11    13 1   
    30    11    41 1   
    31    11    42 1   
    32    12    14 1   
    33    12    43 1   
    34    12    44 1   
    35    13    17 1   
    36    13    45 1   
    37    13    46 1   
    38    14    18 1   
    39    14    47 1   
    40    14    48 1   
    41    15    23 1   
    42    15    49 1   
    43    16    24 1   
    44    16    50 1   
    45    17    23 1   
    46    17    51 1   
    47    18    24 1   
    48    18    52 1   
    49    19    23 2   
    50    20    23 2   
    51    21    24 2   
    52    22    24 2   
@<TRIPOS>SUBSTRUCTURE
     1 RNN         1 TEMP              0 ****  ****    0 ROOT
