@<TRIPOS>MOLECULE
RNN
   52    52     1     0     0
SMALL
abcg2


@<TRIPOS>ATOM
      1 C1           0.6010     1.2570    -0.3330 ca         1 RNN      -0.102500
      2 C2          -0.6070     1.2520     0.3490 ca         1 RNN      -0.102500
      3 C3           0.6060    -1.1310    -0.3430 ca         1 RNN      -0.102500
      4 C4          -0.6020    -1.1370     0.3410 ca         1 RNN      -0.102500
      5 C5           1.2250     0.0650    -0.6930 ca         1 RNN      -0.086300
      6 C6          -1.2260     0.0550     0.6990 ca         1 RNN      -0.086300
      7 C7           6.7390    -2.1600     0.2800 c3         1 RNN      -0.075350
      8 C8           7.9080    -0.4490     1.7360 c3         1 RNN      -0.075350
      9 C9          -6.7360    -2.1630    -0.3260 c3         1 RNN      -0.075350
     10 C10         -7.9040    -0.4250    -1.7510 c3         1 RNN      -0.075350
     11 C11          2.5550     0.0770    -1.3910 c3         1 RNN      -0.034100
     12 C12         -2.5570     0.0560     1.3970 c3         1 RNN      -0.034100
     13 C13          3.6990     0.0640    -0.3800 c3         1 RNN       0.204800
     14 C14         -3.6990     0.0430     0.3850 c3         1 RNN       0.204800
     15 C15          6.6520    -0.7980     0.9490 c3         1 RNN      -0.307700
     16 C16         -6.6490    -0.7890    -0.9690 c3         1 RNN      -0.307700
     17 N17          4.9740     0.1150    -1.0890 n7         1 RNN      -0.876800
     18 N18         -4.9760     0.0850     1.0910 n7         1 RNN      -0.876800
     19 O19          6.1070     1.7370     0.4370 o          1 RNN      -0.525500
     20 O20          7.4270     0.4460    -1.2670 o          1 RNN      -0.525500
     21 O21         -6.1040     1.7350    -0.4080 o          1 RNN      -0.525500
     22 O22         -7.4300     0.4130     1.2690 o          1 RNN      -0.525500
     23 S23          6.3570     0.4930    -0.2790 s6         1 RNN       1.174100
     24 S24         -6.3570     0.4780     0.2850 s6         1 RNN       1.174100
     25 H1           1.0620     2.2030    -0.5910 ha         1 RNN       0.115500
     26 H2          -1.0730     2.1940     0.6140 ha         1 RNN       0.115500
     27 H3           1.0700    -2.0740    -0.6090 ha         1 RNN       0.115500
     28 H4          -1.0620    -2.0830     0.6010 ha         1 RNN       0.115500
     29 H7           5.8160    -2.4330    -0.2320 hc         1 RNN       0.050450
     30 H7A          7.5630    -2.2050    -0.4320 hc         1 RNN       0.050450
     31 H7B          6.9160    -2.9160     1.0440 hc         1 RNN       0.050450
     32 H8           8.7930    -0.4560     1.0990 hc         1 RNN       0.050450
     33 H8A          7.8330     0.5230     2.2200 hc         1 RNN       0.050450
     34 H8B          8.0510    -1.1970     2.5160 hc         1 RNN       0.050450
     35 H9          -6.9150    -2.9050    -1.1040 hc         1 RNN       0.050450
     36 H9A         -5.8120    -2.4460     0.1780 hc         1 RNN       0.050450
     37 H9B         -7.5570    -2.2210     0.3870 hc         1 RNN       0.050450
     38 H10         -7.8270     0.5560    -2.2180 hc         1 RNN       0.050450
     39 H10A        -8.0460    -1.1590    -2.5440 hc         1 RNN       0.050450
     40 H10B        -8.7890    -0.4420    -1.1160 hc         1 RNN       0.050450
     41 H11          2.6430    -0.7920    -2.0480 hc         1 RNN       0.059700
     42 H11A         2.6470     0.9660    -2.0190 hc         1 RNN       0.059700
     43 H12         -2.6400    -0.8180     2.0480 hc         1 RNN       0.059700
     44 H12A        -2.6550     0.9400     2.0300 hc         1 RNN       0.059700
     45 H13          3.6250     0.9390     0.2650 h1         1 RNN       0.054200
     46 H13A         3.6160    -0.8240     0.2570 h1         1 RNN       0.054200
     47 H14         -3.6290     0.9220    -0.2560 h1         1 RNN       0.054200
     48 H14A        -3.6120    -0.8410    -0.2570 h1         1 RNN       0.054200
     49 H15          5.7830    -0.7580     1.6110 h1         1 RNN       0.088700
     50 H16         -5.7780    -0.7350    -1.6280 h1         1 RNN       0.088700
     51 HN17         5.1090    -0.6310    -1.7630 hn         1 RNN       0.483000
     52 HN18        -5.1130    -0.6690     1.7560 hn         1 RNN       0.483000
@<TRIPOS>BOND
     1     1     2 ar  
     2     1     5 ar  
     3     1    25 1   
     4     2     6 ar  
     5     2    26 1   
     6     3     4 ar  
     7     3     5 ar  
     8     3    27 1   
     9     4     6 ar  
    10     4    28 1   
    11     5    11 1   
    12     6    12 1   
    13     7    15 1   
    14     7    29 1   
    15     7    30 1   
    16     7    31 1   
    17     8    15 1   
    18     8    32 1   
    19     8    33 1   
    20     8    34 1   
    21     9    16 1   
    22     9    35 1   
    23     9    36 1   
    24     9    37 1   
    25    10    16 1   
    26    10    38 1   
    27    10    39 1   
    28    10    40 1   
    29    11    13 1   
    30    11    41 1   
    31    11    42 1   
    32    12    14 1   
    33    12    43 1   
    34    12    44 1   
    35    13    17 1   
    36    13    45 1   
    37    13    46 1   
    38    14    18 1   
    39    14    47 1   
    40    14    48 1   
    41    15    23 1   
    42    15    49 1   
    43    16    24 1   
    44    16    50 1   
    45    17    23 1   
    46    17    51 1   
    47    18    24 1   
    48    18    52 1   
    49    19    23 2   
    50    20    23 2   
    51    21    24 2   
    52    22    24 2   
@<TRIPOS>SUBSTRUCTURE
     1 RNN         1 TEMP              0 ****  ****    0 ROOT
