@<TRIPOS>MOLECULE
RNO
   19    20     1     0     0
SMALL
No Charge or Current Charge


@<TRIPOS>ATOM
      1 C1           1.4440    -0.0060     0.0690 ca         1 RNO      -0.176200
      2 C2           0.8930    -1.2850     0.3170 ca         1 RNO      -0.045500
      3 C3          -0.5010    -1.4620     0.3610 ca         1 RNO      -0.108000
      4 C4          -1.3720    -0.3740     0.1570 ca         1 RNO      -0.037300
      5 C5          -0.8240     0.9010    -0.0890 ca         1 RNO      -0.108000
      6 C6           0.5690     1.0870    -0.1340 ca         1 RNO      -0.045500
      7 C7          -2.8640    -0.5920     0.2060 cx         1 RNO       0.115600
      8 C8          -3.8110     0.0830    -0.7460 cx         1 RNO       0.085600
      9 N1           2.9300     0.1880     0.0220 no         1 RNO       0.694200
     10 O1           3.6550    -0.7990     0.2060 o          1 RNO      -0.397500
     11 O2           3.3650     1.3260    -0.2000 o          1 RNO      -0.397500
     12 O3          -3.7050     0.5060     0.6340 op         1 RNO      -0.422000
     13 H2           1.5370    -2.1480     0.4780 ha         1 RNO       0.153500
     14 H3          -0.9050    -2.4540     0.5530 ha         1 RNO       0.134500
     15 H5          -1.4760     1.7580    -0.2430 ha         1 RNO       0.134500
     16 H6           0.9590     2.0860    -0.3260 ha         1 RNO       0.153500
     17 H7          -3.1570    -1.5660     0.6000 h1         1 RNO       0.099700
     18 H81         -3.4170     0.7830    -1.4820 h1         1 RNO       0.083200
     19 H82         -4.7410    -0.4190    -1.0110 h1         1 RNO       0.083200
@<TRIPOS>BOND
     1     1     2 ar  
     2     1     6 ar  
     3     1     9 1   
     4     2     3 ar  
     5     2    13 1   
     6     3     4 ar  
     7     3    14 1   
     8     4     5 ar  
     9     4     7 1   
    10     5     6 ar  
    11     5    15 1   
    12     6    16 1   
    13     7     8 1   
    14     7    12 1   
    15     7    17 1   
    16     8    12 1   
    17     8    18 1   
    18     8    19 1   
    19     9    10 1   
    20     9    11 1   
@<TRIPOS>SUBSTRUCTURE
     1 RNO         1 TEMP              0 ****  ****    0 ROOT
