@<TRIPOS>MOLECULE
RNO
   19    20     1     0     0
SMALL
bcc


@<TRIPOS>ATOM
      1 C1           1.3800    -0.0060     0.0590 ca         1 RNO      -0.176200
      2 C2           0.8530    -1.2760     0.2510 ca         1 RNO      -0.063500
      3 C3          -0.5200    -1.4210     0.3300 ca         1 RNO      -0.126000
      4 C4          -1.3630    -0.3190     0.2120 ca         1 RNO      -0.037300
      5 C5          -0.8090     0.9460     0.0290 ca         1 RNO      -0.126000
      6 C6           0.5610     1.1090    -0.0510 ca         1 RNO      -0.063500
      7 C7          -2.8300    -0.5210     0.2730 cx         1 RNO       0.092400
      8 C8          -3.7000    -0.0330    -0.8020 cx         1 RNO       0.062400
      9 N1           2.8210     0.1600    -0.0230 no         1 RNO       0.314200
     10 O1           3.5140    -0.8260     0.0680 o          1 RNO      -0.207500
     11 O2           3.2570     1.2770    -0.1780 o          1 RNO      -0.207500
     12 O3          -3.6330     0.6260     0.4490 op         1 RNO      -0.375600
     13 H2           1.4920    -2.1410     0.3440 ha         1 RNO       0.171500
     14 H3          -0.9360    -2.4080     0.4890 ha         1 RNO       0.152500
     15 H5          -1.4470     1.8170    -0.0470 ha         1 RNO       0.152500
     16 H6           0.9760     2.0970    -0.1940 ha         1 RNO       0.171500
     17 H7          -3.1520    -1.4030     0.8230 h1         1 RNO       0.099700
     18 H81         -3.2600     0.4960    -1.6430 h1         1 RNO       0.083200
     19 H82         -4.6260    -0.5590    -1.0160 h1         1 RNO       0.083200
@<TRIPOS>BOND
     1     1     2 ar  
     2     1     6 ar  
     3     1     9 1   
     4     2     3 ar  
     5     2    13 1   
     6     3     4 ar  
     7     3    14 1   
     8     4     5 ar  
     9     4     7 1   
    10     5     6 ar  
    11     5    15 1   
    12     6    16 1   
    13     7     8 1   
    14     7    12 1   
    15     7    17 1   
    16     8    12 1   
    17     8    18 1   
    18     8    19 1   
    19     9    10 1   
    20     9    11 1   
@<TRIPOS>SUBSTRUCTURE
     1 RNO         1 TEMP              0 ****  ****    0 ROOT
