@<TRIPOS>MOLECULE
RNP
   38    39     1     0     0
SMALL
abcg2


@<TRIPOS>ATOM
      1 C1          -0.6180     0.1750    -1.4980 ca         1 RNP       0.164100
      2 C2          -1.9880     0.2610    -1.4600 ca         1 RNP      -0.222000
      3 C3          -2.7320     0.2090    -2.6580 ca         1 RNP      -0.067000
      4 C4          -2.1170     0.0760    -3.8690 ca         1 RNP      -0.140000
      5 C5          -0.0350    -0.1520    -5.1750 ca         1 RNP      -0.114000
      6 C6           1.3290    -0.2400    -5.2300 ca         1 RNP      -0.094000
      7 C7           2.0880    -0.1930    -4.0450 ca         1 RNP      -0.127000
      8 C8           1.4700    -0.0610    -2.8290 ca         1 RNP      -0.068000
      9 C9           0.0620     0.0320    -2.7450 ca         1 RNP      -0.057000
     10 C10         -0.7060    -0.0150    -3.9370 ca         1 RNP      -0.006000
     11 O1           0.1780     0.2190    -0.4150 os         1 RNP      -0.329100
     12 C11         -0.4150     0.3490     0.8610 c3         1 RNP       0.148600
     13 C12          0.7030     0.3570     1.8890 c3         1 RNP       0.123000
     14 O2           1.3950    -0.8560     1.9060 oh         1 RNP      -0.646000
     15 C13          0.1170     0.6580     3.2430 c2         1 RNP       0.387200
     16 N1           0.3000    -0.1650     4.1740 n2         1 RNP      -0.611900
     17 C14         -0.2450     0.0970     5.4930 c3         1 RNP       0.130500
     18 C15         -1.1900    -1.0370     5.8630 c3         1 RNP      -0.086600
     19 C16          0.9060     0.2050     6.4850 c3         1 RNP      -0.086600
     20 H2          -2.5220     0.3730    -0.5260 ha         1 RNP       0.113000
     21 H3          -3.8100     0.2760    -2.6000 ha         1 RNP       0.109000
     22 H4          -2.6970     0.0380    -4.7830 ha         1 RNP       0.115000
     23 H5          -0.6240    -0.1880    -6.0840 ha         1 RNP       0.112000
     24 H6           1.8290    -0.3460    -6.1840 ha         1 RNP       0.111000
     25 H7           3.1670    -0.2620    -4.0960 ha         1 RNP       0.113000
     26 H8           2.0700    -0.0270    -1.9300 ha         1 RNP       0.131000
     27 H111        -1.1010    -0.4830     1.0570 h1         1 RNP       0.040700
     28 H112        -0.9870     1.2820     0.9250 h1         1 RNP       0.040700
     29 H12          1.3830     1.1860     1.6420 h1         1 RNP       0.071700
     30 HA           1.2880    -1.2000     2.8090 ho         1 RNP       0.476000
     31 H13         -0.4440     1.5920     3.3530 h4         1 RNP      -0.020200
     32 H14         -0.8060     1.0420     5.4960 h1         1 RNP       0.030700
     33 H151        -1.6200    -0.8650     6.8500 hc         1 RNP       0.043367
     34 H152        -2.0100    -1.1190     5.1490 hc         1 RNP       0.043367
     35 H153        -0.6600    -1.9910     5.8870 hc         1 RNP       0.043367
     36 H161         1.4950    -0.7130     6.4940 hc         1 RNP       0.043367
     37 H162         1.5690     1.0340     6.2370 hc         1 RNP       0.043367
     38 H163         0.5220     0.3720     7.4920 hc         1 RNP       0.043367
@<TRIPOS>BOND
     1     1     2 ar  
     2     1     9 ar  
     3     1    11 1   
     4     2     3 ar  
     5     2    20 1   
     6     3     4 ar  
     7     3    21 1   
     8     4    10 ar  
     9     4    22 1   
    10     5     6 ar  
    11     5    10 ar  
    12     5    23 1   
    13     6     7 ar  
    14     6    24 1   
    15     7     8 ar  
    16     7    25 1   
    17     8     9 ar  
    18     8    26 1   
    19     9    10 ar  
    20    11    12 1   
    21    12    13 1   
    22    12    27 1   
    23    12    28 1   
    24    13    14 1   
    25    13    15 1   
    26    13    29 1   
    27    14    30 1   
    28    15    16 2   
    29    15    31 1   
    30    16    17 1   
    31    17    18 1   
    32    17    19 1   
    33    17    32 1   
    34    18    33 1   
    35    18    34 1   
    36    18    35 1   
    37    19    36 1   
    38    19    37 1   
    39    19    38 1   
@<TRIPOS>SUBSTRUCTURE
     1 RNP         1 TEMP              0 ****  ****    0 ROOT
