@<TRIPOS>MOLECULE
RNP
   38    39     1     0     0
SMALL
No Charge or Current Charge


@<TRIPOS>ATOM
      1 C1          -0.5740     0.1420    -1.5690 ca         1 RNP       0.164100
      2 C2          -1.9860     0.1430    -1.4970 ca         1 RNP      -0.222000
      3 C3          -2.7560     0.0440    -2.6670 ca         1 RNP      -0.067000
      4 C4          -2.1270    -0.0570    -3.9170 ca         1 RNP      -0.140000
      5 C5          -0.1020    -0.1620    -5.2640 ca         1 RNP      -0.114000
      6 C6           1.2980    -0.1660    -5.3630 ca         1 RNP      -0.094000
      7 C7           2.0830    -0.0690    -4.2030 ca         1 RNP      -0.127000
      8 C8           1.4690     0.0340    -2.9420 ca         1 RNP      -0.068000
      9 C9           0.0600     0.0390    -2.8310 ca         1 RNP      -0.057000
     10 C10         -0.7240    -0.0600    -4.0050 ca         1 RNP      -0.006000
     11 O1           0.2090     0.2400    -0.4320 os         1 RNP      -0.329100
     12 C11         -0.3540     0.3390     0.8910 c3         1 RNP       0.148600
     13 C12          0.8010     0.4350     1.9200 c3         1 RNP       0.123000
     14 O2           1.5940    -0.7790     1.9160 oh         1 RNP      -0.646000
     15 C13          0.2520     0.7180     3.3170 c2         1 RNP       0.387200
     16 N1           0.2940    -0.1590     4.2660 n2         1 RNP      -0.611900
     17 C14         -0.2370     0.1190     5.6050 c3         1 RNP       0.130500
     18 C15         -1.3990    -0.8490     5.8990 c3         1 RNP      -0.086600
     19 C16          0.9020    -0.0020     6.6360 c3         1 RNP      -0.086600
     20 H2          -2.5040     0.2200    -0.5460 ha         1 RNP       0.113000
     21 H3          -3.8430     0.0460    -2.6060 ha         1 RNP       0.109000
     22 H4          -2.7330    -0.1330    -4.8170 ha         1 RNP       0.115000
     23 H5          -0.7040    -0.2390    -6.1670 ha         1 RNP       0.112000
     24 H6           1.7750    -0.2460    -6.3380 ha         1 RNP       0.111000
     25 H7           3.1680    -0.0720    -4.2790 ha         1 RNP       0.113000
     26 H8           2.0960     0.1080    -2.0560 ha         1 RNP       0.131000
     27 H111        -0.9740    -0.5380     1.1190 h1         1 RNP       0.040700
     28 H112        -0.9810     1.2370     0.9710 h1         1 RNP       0.040700
     29 H12          1.4290     1.2900     1.6340 h1         1 RNP       0.071700
     30 HA           1.4410    -1.1810     2.8060 ho         1 RNP       0.476000
     31 H13         -0.1810     1.7010     3.4860 h4         1 RNP      -0.020200
     32 H14         -0.6320     1.1430     5.6600 h1         1 RNP       0.030700
     33 H151        -1.8200    -0.6540     6.8920 hc         1 RNP       0.043367
     34 H152        -2.2010    -0.7260     5.1610 hc         1 RNP       0.043367
     35 H153        -1.0590    -1.8920     5.8680 hc         1 RNP       0.043367
     36 H161         1.3280    -1.0130     6.6330 hc         1 RNP       0.043367
     37 H162         1.7040     0.7110     6.4120 hc         1 RNP       0.043367
     38 H163         0.5310     0.2110     7.6450 hc         1 RNP       0.043367
@<TRIPOS>BOND
     1     1     2 ar  
     2     1     9 ar  
     3     1    11 1   
     4     2     3 ar  
     5     2    20 1   
     6     3     4 ar  
     7     3    21 1   
     8     4    10 ar  
     9     4    22 1   
    10     5     6 ar  
    11     5    10 ar  
    12     5    23 1   
    13     6     7 ar  
    14     6    24 1   
    15     7     8 ar  
    16     7    25 1   
    17     8     9 ar  
    18     8    26 1   
    19     9    10 ar  
    20    11    12 1   
    21    12    13 1   
    22    12    27 1   
    23    12    28 1   
    24    13    14 1   
    25    13    15 1   
    26    13    29 1   
    27    14    30 1   
    28    15    16 2   
    29    15    31 1   
    30    16    17 1   
    31    17    18 1   
    32    17    19 1   
    33    17    32 1   
    34    18    33 1   
    35    18    34 1   
    36    18    35 1   
    37    19    36 1   
    38    19    37 1   
    39    19    38 1   
@<TRIPOS>SUBSTRUCTURE
     1 RNP         1 TEMP              0 ****  ****    0 ROOT
