@<TRIPOS>MOLECULE
RNR
   67    71     1     0     0
SMALL
No Charge or Current Charge


@<TRIPOS>ATOM
      1 N1           0.0640     1.1350    -0.4530 nb         1 RNR      -0.684000
      2 C2          -1.1040     1.7550    -0.1700 ca         1 RNR       0.331000
      3 C3          -2.3180     1.1110    -0.4600 ca         1 RNR      -0.179500
      4 C4          -3.5590     1.7160    -0.1860 ca         1 RNR       0.006000
      5 C5          -3.5780     2.9990     0.4010 ca         1 RNR      -0.122000
      6 C6          -2.3740     3.6580     0.6990 ca         1 RNR      -0.067500
      7 C7          -1.1430     3.0420     0.4150 ca         1 RNR      -0.116000
      8 C8           0.0630     3.6970     0.7110 ca         1 RNR      -0.023000
      9 C9           1.2700     3.0440     0.4120 ca         1 RNR      -0.116000
     10 C10          2.5010     3.6630     0.6920 ca         1 RNR      -0.067500
     11 C11          3.7050     3.0060     0.3910 ca         1 RNR      -0.122000
     12 C12          3.6870     1.7230    -0.1960 ca         1 RNR       0.006000
     13 C13          2.4470     1.1150    -0.4670 ca         1 RNR      -0.179500
     14 C14          1.2320     1.7570    -0.1730 ca         1 RNR       0.331000
     15 N15          4.8610     0.9910    -0.5270 ns         1 RNR      -0.149500
     16 C16          6.2120     1.3140    -0.4710 c          1 RNR       0.610600
     17 O17          6.6480     2.4040    -0.1210 o          1 RNR      -0.578100
     18 C18          7.1460     0.1940    -0.9290 c3         1 RNR      -0.163900
     19 C19          7.8750    -0.4200     0.2790 c3         1 RNR       0.182800
     20 N20          8.8690    -1.4510    -0.0940 n3         1 RNR      -0.719100
     21 C21          9.6980    -1.9640     1.0320 c5         1 RNR       0.132800
     22 C22         10.3690    -3.2590     0.4630 c5         1 RNR       0.193300
     23 F23         11.7500    -3.1010     0.3130 f          1 RNR      -0.260000
     24 C24          9.6830    -3.4490    -0.9210 c5         1 RNR      -0.114900
     25 C25          8.3550    -2.6820    -0.7320 c5         1 RNR       0.158300
     26 N26         -4.7330     0.9820    -0.5140 ns         1 RNR      -0.149500
     27 C27         -6.0840     1.3010    -0.4510 c          1 RNR       0.610600
     28 O28         -6.5220     2.3890    -0.0960 o          1 RNR      -0.578100
     29 C29         -7.0160     0.1810    -0.9090 c3         1 RNR      -0.163900
     30 C30         -7.7360    -0.4400     0.3000 c3         1 RNR       0.182800
     31 N31         -8.5500    -1.6250    -0.0490 n3         1 RNR      -0.719100
     32 C32         -9.1550    -2.3400     1.1090 c5         1 RNR       0.132800
     33 C33        -10.2310    -3.2780     0.4680 c5         1 RNR       0.193300
     34 F34         -9.8800    -4.6260     0.5930 f          1 RNR      -0.260000
     35 C35        -10.2480    -2.8490    -1.0280 c5         1 RNR      -0.114900
     36 C36         -9.6970    -1.4080    -0.9570 c5         1 RNR       0.158300
     37 H3          -2.2900     0.1220    -0.9090 ha         1 RNR       0.127500
     38 H5          -4.5100     3.5020     0.6390 ha         1 RNR       0.149500
     39 H6          -2.4020     4.6480     1.1510 ha         1 RNR       0.118000
     40 H8           0.0630     4.6880     1.1610 ha         1 RNR       0.119000
     41 H10          2.5280     4.6520     1.1440 ha         1 RNR       0.118000
     42 H11          4.6360     3.5110     0.6270 ha         1 RNR       0.149500
     43 H13          2.4190     0.1260    -0.9160 ha         1 RNR       0.127500
     44 HN15         4.6750     0.0560    -0.8630 hn         1 RNR       0.153000
     45 H18          6.5710    -0.5880    -1.4370 hc         1 RNR       0.069200
     46 H18A         7.8970     0.6130    -1.6070 hc         1 RNR       0.069200
     47 H19          8.3840     0.3900     0.8200 h1         1 RNR       0.048200
     48 H19A         7.1300    -0.8470     0.9660 h1         1 RNR       0.048200
     49 H21         10.4420    -1.2250     1.3600 h1         1 RNR       0.051450
     50 H21A         9.0750    -2.2170     1.9010 h1         1 RNR       0.051450
     51 H22         10.1910    -4.1130     1.1290 h1         1 RNR       0.060700
     52 H24         10.2770    -3.0050    -1.7270 hc         1 RNR       0.061450
     53 H24A         9.5270    -4.5040    -1.1690 hc         1 RNR       0.061450
     54 H25          7.6570    -3.2240    -0.0780 h1         1 RNR       0.038700
     55 H25A         7.8580    -2.4910    -1.6930 h1         1 RNR       0.038700
     56 HN26        -4.5460     0.0480    -0.8530 hn         1 RNR       0.153000
     57 H29         -7.7630     0.6050    -1.5890 hc         1 RNR       0.069200
     58 H29A        -6.4460    -0.6060    -1.4160 hc         1 RNR       0.069200
     59 H30         -6.9760    -0.7330     1.0370 h1         1 RNR       0.048200
     60 H30A        -8.3670     0.3250     0.7740 h1         1 RNR       0.048200
     61 H32         -8.4040    -2.9030     1.6790 h1         1 RNR       0.051450
     62 H32A        -9.6380    -1.6350     1.8010 h1         1 RNR       0.051450
     63 H33        -11.2090    -3.1320     0.9460 h1         1 RNR       0.060700
     64 H35         -9.5930    -3.4860    -1.6340 hc         1 RNR       0.061450
     65 H35A       -11.2500    -2.8950    -1.4660 hc         1 RNR       0.061450
     66 H36        -10.4310    -0.7080    -0.5330 h1         1 RNR       0.038700
     67 H36A        -9.3940    -1.0410    -1.9470 h1         1 RNR       0.038700
@<TRIPOS>BOND
     1     1     2 ar  
     2     1    14 ar  
     3     2     3 ar  
     4     2     7 ar  
     5     3     4 ar  
     6     3    37 1   
     7     4     5 ar  
     8     4    26 1   
     9     5     6 ar  
    10     5    38 1   
    11     6     7 ar  
    12     6    39 1   
    13     7     8 ar  
    14     8     9 ar  
    15     8    40 1   
    16     9    10 ar  
    17     9    14 ar  
    18    10    11 ar  
    19    10    41 1   
    20    11    12 ar  
    21    11    42 1   
    22    12    13 ar  
    23    12    15 1   
    24    13    14 ar  
    25    13    43 1   
    26    15    16 1   
    27    15    44 1   
    28    16    17 2   
    29    16    18 1   
    30    18    19 1   
    31    18    45 1   
    32    18    46 1   
    33    19    20 1   
    34    19    47 1   
    35    19    48 1   
    36    20    21 1   
    37    20    25 1   
    38    21    22 1   
    39    21    49 1   
    40    21    50 1   
    41    22    23 1   
    42    22    24 1   
    43    22    51 1   
    44    24    25 1   
    45    24    52 1   
    46    24    53 1   
    47    25    54 1   
    48    25    55 1   
    49    26    27 1   
    50    26    56 1   
    51    27    28 2   
    52    27    29 1   
    53    29    30 1   
    54    29    57 1   
    55    29    58 1   
    56    30    31 1   
    57    30    59 1   
    58    30    60 1   
    59    31    32 1   
    60    31    36 1   
    61    32    33 1   
    62    32    61 1   
    63    32    62 1   
    64    33    34 1   
    65    33    35 1   
    66    33    63 1   
    67    35    36 1   
    68    35    64 1   
    69    35    65 1   
    70    36    66 1   
    71    36    67 1   
@<TRIPOS>SUBSTRUCTURE
     1 RNR         1 TEMP              0 ****  ****    0 ROOT
