@<TRIPOS>MOLECULE
RNR
   67    71     1     0     0
SMALL
bcc


@<TRIPOS>ATOM
      1 N1           0.0360     0.7720    -0.2590 nb         1 RNR      -0.684000
      2 C2          -1.1130     1.4010    -0.0100 ca         1 RNR       0.461600
      3 C3          -2.3300     0.7260    -0.2760 ca         1 RNR      -0.262800
      4 C4          -3.5430     1.3160    -0.0320 ca         1 RNR       0.098600
      5 C5          -3.5950     2.6470     0.4870 ca         1 RNR      -0.140000
      6 C6          -2.4410     3.3150     0.7510 ca         1 RNR      -0.085500
      7 C7          -1.1700     2.7260     0.5230 ca         1 RNR      -0.181300
      8 C8           0.0290     3.3740     0.7940 ca         1 RNR      -0.041000
      9 C9           1.2310     2.7250     0.5440 ca         1 RNR      -0.181300
     10 C10          2.4980     3.3090     0.8010 ca         1 RNR      -0.085500
     11 C11          3.6560     2.6420     0.5520 ca         1 RNR      -0.140000
     12 C12          3.6120     1.3190     0.0150 ca         1 RNR       0.098600
     13 C13          2.4020     0.7290    -0.2490 ca         1 RNR      -0.262800
     14 C14          1.1810     1.4010     0.0070 ca         1 RNR       0.461600
     15 N15          4.7560     0.5750    -0.2650 ns         1 RNR      -0.475600
     16 C16          6.0720     0.8790    -0.0880 c          1 RNR       0.677600
     17 O17          6.4720     1.9180     0.4010 o          1 RNR      -0.578100
     18 C18          7.0120    -0.1930    -0.5940 c3         1 RNR      -0.163900
     19 C19          8.3030    -0.2610     0.2080 c3         1 RNR       0.182800
     20 N20          9.2300    -1.2050    -0.3680 n3         1 RNR      -0.719100
     21 C21         10.5630    -1.1430     0.1990 c5         1 RNR       0.132800
     22 C22         11.2430    -2.3450    -0.4140 c5         1 RNR       0.174600
     23 F23         11.6540    -2.0320    -1.7150 f          1 RNR      -0.241300
     24 C24         10.1350    -3.3930    -0.4530 c5         1 RNR      -0.114900
     25 C25          8.8300    -2.6020    -0.2600 c5         1 RNR       0.158300
     26 N26         -4.6880     0.5820    -0.3370 ns         1 RNR      -0.475600
     27 C27         -5.9820     0.7980     0.0320 c          1 RNR       0.677600
     28 O28         -6.3420     1.7320     0.7240 o          1 RNR      -0.578100
     29 C29         -6.9510    -0.2230    -0.5190 c3         1 RNR      -0.163900
     30 C30         -8.1550    -0.4210     0.3930 c3         1 RNR       0.182800
     31 N31         -9.0320    -1.4560    -0.1020 n3         1 RNR      -0.719100
     32 C32        -10.0930    -1.7990     0.8260 c5         1 RNR       0.132800
     33 C33        -10.9890    -2.6980     0.0060 c5         1 RNR       0.174600
     34 F34        -10.4780    -4.0020     0.0160 f          1 RNR      -0.241300
     35 C35        -10.8970    -2.1100    -1.4010 c5         1 RNR      -0.114900
     36 C36         -9.7180    -1.1280    -1.3440 c5         1 RNR       0.158300
     37 H3          -2.2750    -0.2810    -0.6740 ha         1 RNR       0.145500
     38 H5          -4.5410     3.1280     0.6670 ha         1 RNR       0.167500
     39 H6          -2.4860     4.3240     1.1440 ha         1 RNR       0.136000
     40 H8           0.0260     4.3790     1.2010 ha         1 RNR       0.137000
     41 H10          2.5380     4.3120     1.2090 ha         1 RNR       0.136000
     42 H11          4.6020     3.1140     0.7610 ha         1 RNR       0.167500
     43 H13          2.3520    -0.2730    -0.6580 ha         1 RNR       0.145500
     44 HN15         4.5700    -0.3330    -0.6640 hn         1 RNR       0.319500
     45 H18          6.5100    -1.1630    -0.6090 hc         1 RNR       0.069200
     46 H18A         7.2510     0.0440    -1.6360 hc         1 RNR       0.069200
     47 H19          8.7740     0.7230     0.2100 h1         1 RNR       0.048200
     48 H19A         8.0770    -0.5080     1.2600 h1         1 RNR       0.048200
     49 H21         11.0620    -0.2000    -0.0370 h1         1 RNR       0.051450
     50 H21A        10.5670    -1.2570     1.2960 h1         1 RNR       0.051450
     51 H22         12.1290    -2.6650     0.1350 h1         1 RNR       0.060700
     52 H24         10.1610    -3.9470    -1.3920 hc         1 RNR       0.061450
     53 H24A        10.2720    -4.1180     0.3480 hc         1 RNR       0.061450
     54 H25          8.4020    -2.8190     0.7320 h1         1 RNR       0.038700
     55 H25A         8.0720    -2.8560    -1.0020 h1         1 RNR       0.038700
     56 HN26        -4.5150    -0.2720    -0.8470 hn         1 RNR       0.319500
     57 H29         -7.2670     0.1370    -1.5040 hc         1 RNR       0.069200
     58 H29A        -6.4570    -1.1820    -0.6880 hc         1 RNR       0.069200
     59 H30         -7.8050    -0.7170     1.3850 h1         1 RNR       0.048200
     60 H30A        -8.6920     0.5330     0.5140 h1         1 RNR       0.048200
     61 H32         -9.7100    -2.2820     1.7270 h1         1 RNR       0.051450
     62 H32A       -10.6740    -0.9150     1.1430 h1         1 RNR       0.051450
     63 H33        -12.0070    -2.7530     0.3920 h1         1 RNR       0.060700
     64 H35        -10.7490    -2.9030    -2.1330 hc         1 RNR       0.061450
     65 H35A       -11.8210    -1.5990    -1.6680 hc         1 RNR       0.061450
     66 H36        -10.0920    -0.0910    -1.3290 h1         1 RNR       0.038700
     67 H36A        -9.0530    -1.2200    -2.2040 h1         1 RNR       0.038700
@<TRIPOS>BOND
     1     1     2 ar  
     2     1    14 ar  
     3     2     3 ar  
     4     2     7 ar  
     5     3     4 ar  
     6     3    37 1   
     7     4     5 ar  
     8     4    26 1   
     9     5     6 ar  
    10     5    38 1   
    11     6     7 ar  
    12     6    39 1   
    13     7     8 ar  
    14     8     9 ar  
    15     8    40 1   
    16     9    10 ar  
    17     9    14 ar  
    18    10    11 ar  
    19    10    41 1   
    20    11    12 ar  
    21    11    42 1   
    22    12    13 ar  
    23    12    15 1   
    24    13    14 ar  
    25    13    43 1   
    26    15    16 1   
    27    15    44 1   
    28    16    17 2   
    29    16    18 1   
    30    18    19 1   
    31    18    45 1   
    32    18    46 1   
    33    19    20 1   
    34    19    47 1   
    35    19    48 1   
    36    20    21 1   
    37    20    25 1   
    38    21    22 1   
    39    21    49 1   
    40    21    50 1   
    41    22    23 1   
    42    22    24 1   
    43    22    51 1   
    44    24    25 1   
    45    24    52 1   
    46    24    53 1   
    47    25    54 1   
    48    25    55 1   
    49    26    27 1   
    50    26    56 1   
    51    27    28 2   
    52    27    29 1   
    53    29    30 1   
    54    29    57 1   
    55    29    58 1   
    56    30    31 1   
    57    30    59 1   
    58    30    60 1   
    59    31    32 1   
    60    31    36 1   
    61    32    33 1   
    62    32    61 1   
    63    32    62 1   
    64    33    34 1   
    65    33    35 1   
    66    33    63 1   
    67    35    36 1   
    68    35    64 1   
    69    35    65 1   
    70    36    66 1   
    71    36    67 1   
@<TRIPOS>SUBSTRUCTURE
     1 RNR         1 TEMP              0 ****  ****    0 ROOT
