@<TRIPOS>MOLECULE
RNS
   23    22     1     0     0
SMALL
No Charge or Current Charge


@<TRIPOS>ATOM
      1 C1           0.3240     0.4010    -2.9340 c          1 RNS       0.556900
      2 C2          -0.5090     0.1780    -1.6420 c3         1 RNS       0.015300
      3 C3           0.4010     0.1790    -0.3770 c3         1 RNS       0.117300
      4 C4          -0.3360    -0.2960     0.9160 c3         1 RNS       0.108300
      5 C5           0.4100     0.1050     2.2350 c3         1 RNS       0.139300
      6 C6          -0.2760    -0.4130     3.5180 c3         1 RNS      -0.127100
      7 O1           0.0870    -0.1610    -4.0000 o          1 RNS      -0.491100
      8 O2          -1.5910     1.1480    -1.5010 oh         1 RNS      -0.692000
      9 O3           1.4900    -0.7300    -0.5780 oh         1 RNS      -0.704000
     10 O4          -0.4770    -1.7370     0.8360 oh         1 RNS      -0.709000
     11 O5           0.5110     1.5360     2.3370 oh         1 RNS      -0.706000
     12 H11          1.1110     1.1840    -2.8670 h4         1 RNS      -0.017800
     13 H2          -0.9300    -0.8320    -1.7430 h1         1 RNS       0.109700
     14 H3           0.7790     1.2010    -0.2270 h1         1 RNS       0.086700
     15 H4          -1.3280     0.1800     0.9400 h1         1 RNS       0.081700
     16 H5           1.4200    -0.3310     2.1940 h1         1 RNS       0.081700
     17 H61          0.2560    -0.0600     4.4100 hc         1 RNS       0.047700
     18 H62         -1.3170    -0.0710     3.5780 hc         1 RNS       0.047700
     19 H63         -0.2730    -1.5100     3.5470 hc         1 RNS       0.047700
     20 HO2         -1.2090     2.0580    -1.5260 ho         1 RNS       0.500000
     21 HO3          1.1570    -1.5510    -0.1310 ho         1 RNS       0.508000
     22 HO4         -1.2130    -1.9990     1.4390 ho         1 RNS       0.502000
     23 HO5         -0.3420     1.8660     2.7010 ho         1 RNS       0.498000
@<TRIPOS>BOND
     1     1     2 1   
     2     1     7 2   
     3     1    12 1   
     4     2     3 1   
     5     2     8 1   
     6     2    13 1   
     7     3     4 1   
     8     3     9 1   
     9     3    14 1   
    10     4     5 1   
    11     4    10 1   
    12     4    15 1   
    13     5     6 1   
    14     5    11 1   
    15     5    16 1   
    16     6    17 1   
    17     6    18 1   
    18     6    19 1   
    19     8    20 1   
    20     9    21 1   
    21    10    22 1   
    22    11    23 1   
@<TRIPOS>SUBSTRUCTURE
     1 RNS         1 TEMP              0 ****  ****    0 ROOT
