@<TRIPOS>MOLECULE
RNS
   23    22     1     0     0
SMALL
abcg2


@<TRIPOS>ATOM
      1 C1           0.3410     0.4150    -2.7710 c          1 RNS       0.556900
      2 C2          -0.5220     0.0950    -1.5670 c3         1 RNS       0.015300
      3 C3           0.3520     0.1440    -0.3020 c3         1 RNS       0.117300
      4 C4          -0.4520    -0.2100     0.9550 c3         1 RNS       0.108300
      5 C5           0.3510     0.0090     2.2480 c3         1 RNS       0.139300
      6 C6          -0.4760    -0.3070     3.4850 c3         1 RNS      -0.127100
      7 O1           0.7280    -0.3920    -3.5740 o          1 RNS      -0.491100
      8 O2          -1.6060     0.9870    -1.5140 oh         1 RNS      -0.692000
      9 O3           1.4900    -0.6690    -0.4660 oh         1 RNS      -0.704000
     10 O4          -0.9570    -1.5260     0.8770 oh         1 RNS      -0.709000
     11 O5           0.8730     1.3200     2.2970 oh         1 RNS      -0.706000
     12 H11          0.5920     1.4900    -2.8710 h4         1 RNS      -0.017800
     13 H2          -0.9380    -0.9080    -1.6930 h1         1 RNS       0.109700
     14 H3           0.7290     1.1660    -0.1910 h1         1 RNS       0.086700
     15 H4          -1.3260     0.4510     0.9870 h1         1 RNS       0.081700
     16 H5           1.2250    -0.6510     2.2280 h1         1 RNS       0.081700
     17 H61          0.1160    -0.1500     4.3870 hc         1 RNS       0.047700
     18 H62         -1.3580     0.3370     3.5400 hc         1 RNS       0.047700
     19 H63         -0.8190    -1.3410     3.4910 hc         1 RNS       0.047700
     20 HO2         -1.2870     1.8710    -1.2990 ho         1 RNS       0.500000
     21 HO3          1.2130    -1.5690    -0.6720 ho         1 RNS       0.508000
     22 HO4         -0.2670    -2.1500     1.1250 ho         1 RNS       0.502000
     23 HO5          0.1420     1.9340     2.4260 ho         1 RNS       0.498000
@<TRIPOS>BOND
     1     1     2 1   
     2     1     7 2   
     3     1    12 1   
     4     2     3 1   
     5     2     8 1   
     6     2    13 1   
     7     3     4 1   
     8     3     9 1   
     9     3    14 1   
    10     4     5 1   
    11     4    10 1   
    12     4    15 1   
    13     5     6 1   
    14     5    11 1   
    15     5    16 1   
    16     6    17 1   
    17     6    18 1   
    18     6    19 1   
    19     8    20 1   
    20     9    21 1   
    21    10    22 1   
    22    11    23 1   
@<TRIPOS>SUBSTRUCTURE
     1 RNS         1 TEMP              0 ****  ****    0 ROOT
