@<TRIPOS>MOLECULE
RNT
   25    24     1     0     0
SMALL
No Charge or Current Charge


@<TRIPOS>ATOM
      1 C1           0.7060     0.1180    -2.8090 c3         1 RNT       0.128600
      2 C2          -0.2180     0.0910    -1.5610 c3         1 RNT       0.137300
      3 C3           0.5610    -0.1180    -0.2230 c3         1 RNT       0.108300
      4 C4          -0.3760    -0.2020     1.0250 c3         1 RNT       0.110300
      5 C5           0.3800     0.0130     2.3810 c3         1 RNT       0.138300
      6 C6          -0.5280    -0.1250     3.6240 c3         1 RNT      -0.126100
      7 O1          -0.0480     0.5440    -3.9610 oh         1 RNT      -0.707000
      8 O2          -0.9320     1.3390    -1.5450 oh         1 RNT      -0.691000
      9 O3           1.2980    -1.3520    -0.2680 oh         1 RNT      -0.711000
     10 O4          -1.0170    -1.5020     1.0080 oh         1 RNT      -0.707000
     11 O5           0.9830     1.3180     2.4210 oh         1 RNT      -0.708000
     12 H11          1.5460     0.8030    -2.6280 h1         1 RNT       0.026700
     13 H12          1.1220    -0.8850    -2.9730 h1         1 RNT       0.026700
     14 H2          -0.9220    -0.7440    -1.6840 h1         1 RNT       0.093700
     15 H3           1.2460     0.7330    -0.1020 h1         1 RNT       0.084700
     16 H4          -1.1310     0.5930     0.9400 h1         1 RNT       0.085700
     17 H5           1.1650    -0.7540     2.4540 h1         1 RNT       0.079700
     18 H61          0.0370     0.0870     4.5400 hc         1 RNT       0.046033
     19 H62         -1.3770     0.5680     3.5740 hc         1 RNT       0.046033
     20 H63         -0.9200    -1.1450     3.7100 hc         1 RNT       0.046033
     21 HO1          0.5440     0.4530    -4.7460 ho         1 RNT       0.503000
     22 HO2         -0.9950     1.5670    -2.5060 ho         1 RNT       0.494000
     23 HO3          0.6730    -1.9850     0.1680 ho         1 RNT       0.500000
     24 HO4         -1.8190    -1.4460     1.5790 ho         1 RNT       0.497000
     25 HO5          0.2690     1.9670     2.6200 ho         1 RNT       0.497000
@<TRIPOS>BOND
     1     1     2 1   
     2     1     7 1   
     3     1    12 1   
     4     1    13 1   
     5     2     3 1   
     6     2     8 1   
     7     2    14 1   
     8     3     4 1   
     9     3     9 1   
    10     3    15 1   
    11     4     5 1   
    12     4    10 1   
    13     4    16 1   
    14     5     6 1   
    15     5    11 1   
    16     5    17 1   
    17     6    18 1   
    18     6    19 1   
    19     6    20 1   
    20     7    21 1   
    21     8    22 1   
    22     9    23 1   
    23    10    24 1   
    24    11    25 1   
@<TRIPOS>SUBSTRUCTURE
     1 RNT         1 TEMP              0 ****  ****    0 ROOT
