@<TRIPOS>MOLECULE
RNT
   25    24     1     0     0
SMALL
bcc


@<TRIPOS>ATOM
      1 C1           0.6510     0.0510    -2.7180 c3         1 RNT       0.105400
      2 C2          -0.3040     0.0040    -1.5350 c3         1 RNT       0.114100
      3 C3           0.4670    -0.0780    -0.2050 c3         1 RNT       0.085100
      4 C4          -0.4690    -0.0730     1.0100 c3         1 RNT       0.087100
      5 C5           0.2950     0.0190     2.3420 c3         1 RNT       0.115100
      6 C6          -0.6500     0.0450     3.5350 c3         1 RNT      -0.126100
      7 O1          -0.1010     0.0480    -3.9090 oh         1 RNT      -0.584800
      8 O2          -1.1940     1.0980    -1.5440 oh         1 RNT      -0.568800
      9 O3           1.3300    -1.1970    -0.1830 oh         1 RNT      -0.588800
     10 O4          -1.3310    -1.1940     0.9940 oh         1 RNT      -0.584800
     11 O5           1.1630     1.1340     2.3480 oh         1 RNT      -0.585800
     12 H11          1.2750     0.9540    -2.6340 h1         1 RNT       0.026700
     13 H12          1.3290    -0.8070    -2.6680 h1         1 RNT       0.026700
     14 H2          -0.9350    -0.8880    -1.6300 h1         1 RNT       0.093700
     15 H3           1.1170     0.8000    -0.1340 h1         1 RNT       0.084700
     16 H4          -1.1190     0.8050     0.9360 h1         1 RNT       0.085700
     17 H5           0.9490    -0.8560     2.4280 h1         1 RNT       0.079700
     18 H61         -0.0860     0.1240     4.4650 hc         1 RNT       0.046033
     19 H62         -1.3310     0.8970     3.4760 hc         1 RNT       0.046033
     20 H63         -1.2530    -0.8600     3.5910 hc         1 RNT       0.046033
     21 HO1          0.5130     0.0200    -4.6470 ho         1 RNT       0.404000
     22 HO2         -0.6800     1.9130    -1.5260 ho         1 RNT       0.395000
     23 HO3          0.8240    -1.9860    -0.4040 ho         1 RNT       0.401000
     24 HO4         -0.8420    -1.9720     1.2830 ho         1 RNT       0.398000
     25 HO5          0.6280     1.9350     2.3680 ho         1 RNT       0.398000
@<TRIPOS>BOND
     1     1     2 1   
     2     1     7 1   
     3     1    12 1   
     4     1    13 1   
     5     2     3 1   
     6     2     8 1   
     7     2    14 1   
     8     3     4 1   
     9     3     9 1   
    10     3    15 1   
    11     4     5 1   
    12     4    10 1   
    13     4    16 1   
    14     5     6 1   
    15     5    11 1   
    16     5    17 1   
    17     6    18 1   
    18     6    19 1   
    19     6    20 1   
    20     7    21 1   
    21     8    22 1   
    22     9    23 1   
    23    10    24 1   
    24    11    25 1   
@<TRIPOS>SUBSTRUCTURE
     1 RNT         1 TEMP              0 ****  ****    0 ROOT
