@<TRIPOS>MOLECULE
RNU
   39    41     1     0     0
SMALL
abcg2


@<TRIPOS>ATOM
      1 C1         -64.0510    25.0790    -6.4560 c5         1 RNU       0.522900
      2 C10        -64.6990    25.5000     2.3040 cc         1 RNU      -0.203000
      3 C11        -64.5250    24.4980    -1.2600 c          1 RNU       0.545600
      4 C12        -62.0440    24.1700    -0.9960 c5         1 RNU       0.246000
      5 C13        -61.8510    22.9390    -3.2350 c5         1 RNU       0.048600
      6 C2         -62.7210    24.3860    -8.5590 c2         1 RNU      -0.031600
      7 C3         -63.9950    23.9910    -8.5640 c2         1 RNU      -0.067000
      8 C4         -63.4830    24.6640    -4.1120 c          1 RNU       0.599100
      9 C5         -61.6400    24.0280    -9.5210 c3         1 RNU      -0.021900
     10 C6         -63.2440    23.5590    -3.0730 c5         1 RNU       0.041700
     11 C7         -63.9270    24.8780     1.2840 cc         1 RNU      -0.128000
     12 C8         -64.6490    24.9710     0.1250 cd         1 RNU       0.074500
     13 C9         -65.8480    25.9390     1.7140 cd         1 RNU       0.171300
     14 N1         -64.8080    24.4080    -7.4890 nu         1 RNU      -0.794200
     15 N2         -63.9230    24.2130    -5.3040 ns         1 RNU      -0.493900
     16 N3         -63.3140    24.0770    -1.7140 n          1 RNU      -0.401800
     17 O1         -63.2560    25.8480    -3.8940 o          1 RNU      -0.565100
     18 O2         -65.8310    25.6180     0.3940 os         1 RNU      -0.211000
     19 O3         -65.5150    24.4710    -2.0000 o          1 RNU      -0.579100
     20 S1         -62.3790    25.4750    -7.1940 ss         1 RNU      -0.385600
     21 S2         -60.7450    24.0020    -2.2560 ss         1 RNU      -0.390000
     22 H1         -64.5110    26.0090    -6.1390 h3         1 RNU       0.107700
     23 H122       -61.9510    23.3690    -0.2630 h2         1 RNU       0.076200
     24 H121       -61.9350    25.1350    -0.5060 h2         1 RNU       0.076200
     25 H131       -61.8420    21.9240    -2.8420 h1         1 RNU       0.087200
     26 H132       -61.5210    22.9290    -4.2700 h1         1 RNU       0.087200
     27 H143       -67.1680    27.6120     1.6890 hc         1 RNU       0.060700
     28 H141       -67.9440    26.0730     2.0700 hc         1 RNU       0.060700
     29 H142       -66.9200    26.8690     3.2790 hc         1 RNU       0.060700
     30 H31        -64.4410    23.3590    -9.3200 h4         1 RNU       0.219000
     31 H51        -61.1820    24.9250    -9.9470 hc         1 RNU       0.048700
     32 H53        -60.8440    23.4570    -9.0360 hc         1 RNU       0.048700
     33 H52        -62.0470    23.4270   -10.3350 hc         1 RNU       0.048700
     34 H61        -64.0040    22.7880    -3.2090 h1         1 RNU       0.088700
     35 H71        -62.9700    24.4080     1.4190 ha         1 RNU       0.139000
     36 H2         -65.6500    24.8990    -7.7600 hn         1 RNU       0.475000
     37 H21        -64.0330    23.2230    -5.4700 hn         1 RNU       0.324500
     38 H101       -64.4380    25.6080     3.3440 ha         1 RNU       0.144000
     39 C14        -67.0370    26.6640     2.2160 c3         1 RNU      -0.128400
@<TRIPOS>BOND
     1     1    14 1   
     2     1    15 1   
     3     1    20 1   
     4     1    22 1   
     5     2    11 1   
     6     2    13 2   
     7     2    38 1   
     8     3    12 1   
     9     3    16 1   
    10     3    19 2   
    11     4    16 1   
    12     4    21 1   
    13     4    23 1   
    14     4    24 1   
    15     5    10 1   
    16     5    21 1   
    17     5    25 1   
    18     5    26 1   
    19     6     7 2   
    20     6     9 1   
    21     6    20 1   
    22     7    14 1   
    23     7    30 1   
    24     8    10 1   
    25     8    15 1   
    26     8    17 2   
    27     9    31 1   
    28     9    32 1   
    29     9    33 1   
    30    10    16 1   
    31    10    34 1   
    32    11    12 2   
    33    11    35 1   
    34    12    18 1   
    35    13    18 1   
    36    13    39 1   
    37    14    36 1   
    38    15    37 1   
    39    27    39 1   
    40    28    39 1   
    41    29    39 1   
@<TRIPOS>SUBSTRUCTURE
     1 RNU         1 TEMP              0 ****  ****    0 ROOT
