@<TRIPOS>MOLECULE
RNU
   39    41     1     0     0
SMALL
No Charge or Current Charge


@<TRIPOS>ATOM
      1 C1         -63.6840    25.0450    -6.5610 c5         1 RNU       0.522900
      2 C10        -64.7440    25.4890     2.3780 cc         1 RNU      -0.203000
      3 C11        -64.6980    24.5860    -1.2390 c          1 RNU       0.545600
      4 C12        -62.1570    24.3180    -0.9800 c5         1 RNU       0.246000
      5 C13        -61.8680    23.0040    -3.1770 c5         1 RNU       0.048600
      6 C2         -62.6240    24.2270    -8.7110 c2         1 RNU      -0.031600
      7 C3         -63.9390    24.0300    -8.6600 c2         1 RNU      -0.067000
      8 C4         -63.3940    24.7520    -4.1910 c          1 RNU       0.599100
      9 C5         -61.7000    23.8860    -9.8590 c3         1 RNU      -0.021900
     10 C6         -63.2950    23.6220    -3.1150 c5         1 RNU       0.041700
     11 C7         -64.0530    24.9190     1.2920 cc         1 RNU      -0.128000
     12 C8         -64.8800    25.0370     0.1940 cd         1 RNU       0.074500
     13 C9         -65.9470    25.9120     1.8950 cd         1 RNU       0.171300
     14 N1         -64.6280    24.4110    -7.4990 nu         1 RNU      -0.794200
     15 N2         -63.6010    24.1770    -5.4260 ns         1 RNU      -0.493900
     16 N3         -63.4400    24.1070    -1.6960 n          1 RNU      -0.401800
     17 O1         -63.3360    25.9620    -4.0060 o          1 RNU      -0.565100
     18 O2         -66.0760    25.6350     0.5560 os         1 RNU      -0.211000
     19 O3         -65.6400    24.6170    -2.0250 o          1 RNU      -0.579100
     20 S1         -61.9650    24.9890    -7.2610 ss         1 RNU      -0.385600
     21 S2         -60.8280    24.2120    -2.2610 ss         1 RNU      -0.390000
     22 H1         -63.9370    26.0760    -6.2660 h3         1 RNU       0.107700
     23 H122       -62.0480    23.4990    -0.2590 h2         1 RNU       0.076200
     24 H121       -62.1640    25.3140    -0.5200 h2         1 RNU       0.076200
     25 H131       -61.8360    22.0330    -2.6630 h1         1 RNU       0.087200
     26 H132       -61.5010    22.8620    -4.2020 h1         1 RNU       0.087200
     27 H143       -67.3370    27.5360     2.1260 hc         1 RNU       0.060700
     28 H141       -67.9810    25.9500     2.5900 hc         1 RNU       0.060700
     29 H142       -66.8340    26.7870     3.6520 hc         1 RNU       0.060700
     30 H31        -64.5220    23.5890    -9.4770 h4         1 RNU       0.219000
     31 H51        -61.1980    24.7840   -10.2370 hc         1 RNU       0.048700
     32 H53        -60.9280    23.1760    -9.5420 hc         1 RNU       0.048700
     33 H52        -62.2480    23.4330   -10.6930 hc         1 RNU       0.048700
     34 H61        -64.0560    22.8650    -3.3470 h1         1 RNU       0.088700
     35 H71        -63.0760    24.4600     1.3770 ha         1 RNU       0.139000
     36 H2         -65.5840    24.7680    -7.5760 hn         1 RNU       0.475000
     37 H21        -63.6700    23.1750    -5.5030 hn         1 RNU       0.324500
     38 H101       -64.3840    25.5610     3.4000 ha         1 RNU       0.144000
     39 C14        -67.0860    26.5830     2.6050 c3         1 RNU      -0.128400
@<TRIPOS>BOND
     1     1    14 1   
     2     1    15 1   
     3     1    20 1   
     4     1    22 1   
     5     2    11 1   
     6     2    13 2   
     7     2    38 1   
     8     3    12 1   
     9     3    16 1   
    10     3    19 2   
    11     4    16 1   
    12     4    21 1   
    13     4    23 1   
    14     4    24 1   
    15     5    10 1   
    16     5    21 1   
    17     5    25 1   
    18     5    26 1   
    19     6     7 2   
    20     6     9 1   
    21     6    20 1   
    22     7    14 1   
    23     7    30 1   
    24     8    10 1   
    25     8    15 1   
    26     8    17 2   
    27     9    31 1   
    28     9    32 1   
    29     9    33 1   
    30    10    16 1   
    31    10    34 1   
    32    11    12 2   
    33    11    35 1   
    34    12    18 1   
    35    13    18 1   
    36    13    39 1   
    37    14    36 1   
    38    15    37 1   
    39    27    39 1   
    40    28    39 1   
    41    29    39 1   
@<TRIPOS>SUBSTRUCTURE
     1 RNU         1 TEMP              0 ****  ****    0 ROOT
