@<TRIPOS>MOLECULE
RNV
   53    55     1     0     0
SMALL
abcg2


@<TRIPOS>ATOM
      1 C10         20.3450   -11.7670    41.1890 c3         1 RNV       0.155800
      2 C12         18.0070   -11.7100    41.8350 c3         1 RNV       0.180800
      3 C02         21.4140   -10.6200    37.2320 ca         1 RNV       0.446900
      4 N03         20.7490    -9.6710    37.9000 nb         1 RNV      -0.326000
      5 C04         19.4700    -9.4780    37.6210 ca         1 RNV       0.288300
      6 S05         18.5630    -8.2220    38.4560 ss         1 RNV      -0.257300
      7 C06         19.7340    -7.5820    39.6780 c3         1 RNV      -0.066400
      8 C07         19.7870    -8.4680    40.9120 c          1 RNV       0.614100
      9 N08         20.7870    -9.3620    40.8950 ns         1 RNV      -0.479900
     10 C09         20.8810   -10.4760    41.8070 c3         1 RNV       0.093000
     11 N11         18.9720   -11.6540    40.7530 n3         1 RNV      -0.741600
     12 C13         17.7480   -13.0890    42.4420 c3         1 RNV      -0.111600
     13 C14         18.6590   -12.4990    39.6160 c3         1 RNV       0.180800
     14 C15         17.2870   -12.2200    39.0260 c3         1 RNV      -0.111600
     15 O16         18.9910    -8.3250    41.8270 o          1 RNV      -0.595100
     16 N17         18.7350   -10.1230    36.7390 nb         1 RNV      -0.174000
     17 C18         19.3980   -11.0730    36.0860 ca         1 RNV       0.181300
     18 C19         20.7460   -11.3880    36.2460 ca         1 RNV      -0.246800
     19 C20         21.1730   -12.4590    35.3830 cc         1 RNV      -0.043400
     20 C21         20.1490   -12.9410    34.6360 cd         1 RNV      -0.077600
     21 C22         20.2310   -14.0730    33.6650 c6         1 RNV      -0.008200
     22 C23         21.5170   -14.8610    33.9000 c6         1 RNV      -0.071400
     23 C24         22.7040   -13.9170    34.0370 c6         1 RNV      -0.072400
     24 C25         22.5650   -13.0100    35.2590 c6         1 RNV      -0.017200
     25 S26         18.6490   -12.0990    34.9170 ss         1 RNV      -0.103900
     26 H1          20.5190   -12.5850    41.9050 h1         1 RNV       0.028200
     27 H2          20.9620   -12.0020    40.3160 h1         1 RNV       0.028200
     28 H3          18.3400   -11.0280    42.6200 h1         1 RNV       0.038950
     29 H4          17.0610   -11.2930    41.4820 h1         1 RNV       0.038950
     30 H5          23.1250   -10.2110    38.2510 hn         1 RNV       0.501000
     31 H6          23.2650   -11.5120    37.1400 hn         1 RNV       0.501000
     32 H7          20.7070    -7.4370    39.2110 h1         1 RNV       0.097200
     33 H8          19.3400    -6.6040    39.9560 h1         1 RNV       0.097200
     34 H9          21.2530    -9.4660    40.0020 hn         1 RNV       0.320500
     35 H10         21.9280   -10.6300    42.0780 h1         1 RNV       0.056700
     36 H11         20.3550   -10.2190    42.7240 h1         1 RNV       0.056700
     37 H13         17.0660   -13.0010    43.2880 hc         1 RNV       0.037367
     38 H14         17.2900   -13.7730    41.7250 hc         1 RNV       0.037367
     39 H15         18.6630   -13.5570    42.8090 hc         1 RNV       0.037367
     40 H16         18.7400   -13.5750    39.8450 h1         1 RNV       0.038950
     41 H17         19.4130   -12.3040    38.8480 h1         1 RNV       0.038950
     42 H18         17.1830   -12.7340    38.0700 hc         1 RNV       0.037367
     43 H19         16.4780   -12.5680    39.6700 hc         1 RNV       0.037367
     44 H20         17.1550   -11.1520    38.8530 hc         1 RNV       0.037367
     45 H21         20.2090   -13.6880    32.6410 hc         1 RNV       0.054700
     46 H22         19.3600   -14.7260    33.7650 hc         1 RNV       0.054700
     47 H23         21.4200   -15.4650    34.8060 hc         1 RNV       0.045700
     48 H24         21.6730   -15.5550    33.0730 hc         1 RNV       0.045700
     49 H25         23.6370   -14.4780    34.1070 hc         1 RNV       0.045200
     50 H26         22.7760   -13.3000    33.1360 hc         1 RNV       0.045200
     51 H27         22.8280   -13.5630    36.1670 hc         1 RNV       0.043700
     52 H28         23.2870   -12.1930    35.1710 hc         1 RNV       0.043700
     53 N01         22.6970   -10.7980    37.5560 nv         1 RNV      -1.081900
@<TRIPOS>BOND
     1     1    10 1   
     2     1    11 1   
     3     1    26 1   
     4     1    27 1   
     5     2    11 1   
     6     2    12 1   
     7     2    28 1   
     8     2    29 1   
     9     3     4 ar  
    10     3    18 ar  
    11     3    53 1   
    12     4     5 ar  
    13     5     6 1   
    14     5    16 ar  
    15     6     7 1   
    16     7     8 1   
    17     7    32 1   
    18     7    33 1   
    19     8     9 1   
    20     8    15 2   
    21     9    10 1   
    22     9    34 1   
    23    10    35 1   
    24    10    36 1   
    25    11    13 1   
    26    12    37 1   
    27    12    38 1   
    28    12    39 1   
    29    13    14 1   
    30    13    40 1   
    31    13    41 1   
    32    14    42 1   
    33    14    43 1   
    34    14    44 1   
    35    16    17 ar  
    36    17    18 ar  
    37    17    25 1   
    38    18    19 1   
    39    19    20 2   
    40    19    24 1   
    41    20    21 1   
    42    20    25 1   
    43    21    22 1   
    44    21    45 1   
    45    21    46 1   
    46    22    23 1   
    47    22    47 1   
    48    22    48 1   
    49    23    24 1   
    50    23    49 1   
    51    23    50 1   
    52    24    51 1   
    53    24    52 1   
    54    30    53 1   
    55    31    53 1   
@<TRIPOS>SUBSTRUCTURE
     1 RNV         1 TEMP              0 ****  ****    0 ROOT
