@<TRIPOS>MOLECULE
RNV
   53    55     1     0     0
SMALL
No Charge or Current Charge


@<TRIPOS>ATOM
      1 C10         20.3780   -11.9430    40.6270 c3         1 RNV       0.155800
      2 C12         17.9710   -11.8450    41.3230 c3         1 RNV       0.180800
      3 C02         21.5160   -10.1450    37.1700 ca         1 RNV       0.446900
      4 N03         20.9930    -9.0810    37.7900 nb         1 RNV      -0.326000
      5 C04         19.6590    -8.8950    37.6660 ca         1 RNV       0.288300
      6 S05         18.9310    -7.5010    38.5220 ss         1 RNV      -0.257300
      7 C06         19.9880    -7.2750    40.0390 c3         1 RNV      -0.066400
      8 C07         19.9080    -8.4590    41.0130 c          1 RNV       0.614100
      9 N08         20.8100    -9.4700    40.7700 ns         1 RNV      -0.479900
     10 C09         20.8760   -10.7500    41.4880 c3         1 RNV       0.093000
     11 N11         18.9500   -11.9010    40.1970 n3         1 RNV      -0.741600
     12 C13         17.9130   -13.1030    42.2170 c3         1 RNV      -0.111600
     13 C14         18.6560   -12.9360    39.1700 c3         1 RNV       0.180800
     14 C15         17.2510   -12.8510    38.5410 c3         1 RNV      -0.111600
     15 O16         19.1220    -8.4840    41.9500 o          1 RNV      -0.595100
     16 N17         18.8180    -9.6640    36.9430 nb         1 RNV      -0.174000
     17 C18         19.3780   -10.7150    36.3210 ca         1 RNV       0.181300
     18 C19         20.7240   -11.0150    36.4040 ca         1 RNV      -0.246800
     19 C20         21.0980   -12.2260    35.6820 cc         1 RNV      -0.043400
     20 C21         19.9620   -12.7900    35.1040 cd         1 RNV      -0.077600
     21 C22         19.9610   -14.0880    34.3250 c6         1 RNV      -0.008200
     22 C23         21.2250   -14.9230    34.6260 c6         1 RNV      -0.071400
     23 C24         22.4870   -14.0390    34.5370 c6         1 RNV      -0.072400
     24 C25         22.4580   -12.8980    35.5860 c6         1 RNV      -0.017200
     25 S26         18.4600   -11.8530    35.3310 ss         1 RNV      -0.103900
     26 H1          20.5710   -12.8690    41.1840 h1         1 RNV       0.028200
     27 H2          21.0190   -11.9820    39.7360 h1         1 RNV       0.028200
     28 H3          18.1920   -10.9860    41.9690 h1         1 RNV       0.038950
     29 H4          16.9630   -11.6580    40.9320 h1         1 RNV       0.038950
     30 H5          23.3710    -9.4900    37.6840 hn         1 RNV       0.501000
     31 H6          23.3450   -10.9360    36.7470 hn         1 RNV       0.501000
     32 H7          21.0330    -7.1230    39.7480 h1         1 RNV       0.097200
     33 H8          19.6510    -6.3810    40.5780 h1         1 RNV       0.097200
     34 H9          21.3840    -9.3650    39.9410 hn         1 RNV       0.320500
     35 H10         21.9240   -10.9310    41.7590 h1         1 RNV       0.056700
     36 H11         20.3050   -10.6920    42.4230 h1         1 RNV       0.056700
     37 H13         17.1640   -12.9650    43.0050 hc         1 RNV       0.037367
     38 H14         17.6300   -13.9890    41.6370 hc         1 RNV       0.037367
     39 H15         18.8780   -13.2930    42.7000 hc         1 RNV       0.037367
     40 H16         18.7900   -13.9420    39.5920 h1         1 RNV       0.038950
     41 H17         19.3830   -12.8430    38.3510 h1         1 RNV       0.038950
     42 H18         17.1770   -13.5430    37.6950 hc         1 RNV       0.037367
     43 H19         16.4740   -13.1240    39.2650 hc         1 RNV       0.037367
     44 H20         17.0500   -11.8370    38.1760 hc         1 RNV       0.037367
     45 H21         19.9150   -13.8700    33.2490 hc         1 RNV       0.054700
     46 H22         19.0650   -14.6780    34.5580 hc         1 RNV       0.054700
     47 H23         21.1510   -15.3630    35.6310 hc         1 RNV       0.045700
     48 H24         21.2970   -15.7620    33.9200 hc         1 RNV       0.045700
     49 H25         23.3890   -14.6510    34.6790 hc         1 RNV       0.045200
     50 H26         22.5600   -13.6090    33.5280 hc         1 RNV       0.045200
     51 H27         22.7340   -13.3070    36.5670 hc         1 RNV       0.043700
     52 H28         23.2360   -12.1700    35.3230 hc         1 RNV       0.043700
     53 N01         22.8480   -10.2960    37.3560 nv         1 RNV      -1.081900
@<TRIPOS>BOND
     1     1    10 1   
     2     1    11 1   
     3     1    26 1   
     4     1    27 1   
     5     2    11 1   
     6     2    12 1   
     7     2    28 1   
     8     2    29 1   
     9     3     4 ar  
    10     3    18 ar  
    11     3    53 1   
    12     4     5 ar  
    13     5     6 1   
    14     5    16 ar  
    15     6     7 1   
    16     7     8 1   
    17     7    32 1   
    18     7    33 1   
    19     8     9 1   
    20     8    15 2   
    21     9    10 1   
    22     9    34 1   
    23    10    35 1   
    24    10    36 1   
    25    11    13 1   
    26    12    37 1   
    27    12    38 1   
    28    12    39 1   
    29    13    14 1   
    30    13    40 1   
    31    13    41 1   
    32    14    42 1   
    33    14    43 1   
    34    14    44 1   
    35    16    17 ar  
    36    17    18 ar  
    37    17    25 1   
    38    18    19 1   
    39    19    20 2   
    40    19    24 1   
    41    20    21 1   
    42    20    25 1   
    43    21    22 1   
    44    21    45 1   
    45    21    46 1   
    46    22    23 1   
    47    22    47 1   
    48    22    48 1   
    49    23    24 1   
    50    23    49 1   
    51    23    50 1   
    52    24    51 1   
    53    24    52 1   
    54    30    53 1   
    55    31    53 1   
@<TRIPOS>SUBSTRUCTURE
     1 RNV         1 TEMP              0 ****  ****    0 ROOT
