@<TRIPOS>MOLECULE
RNW
   35    36     1     0     0
SMALL
abcg2


@<TRIPOS>ATOM
      1 C10         11.0680    -4.9910    25.6750 ca         1 RNW      -0.103000
      2 C13          9.2770    -2.8810    25.7950 ca         1 RNW      -0.103250
      3 C17          7.1390    -4.0450    21.4160 c          1 RNW       0.633100
      4 C01         13.5740     0.2520    22.8590 ca         1 RNW      -0.105000
      5 C02         12.5040     0.8000    23.5530 ca         1 RNW      -0.103000
      6 C03         11.3490     0.0560    23.7520 ca         1 RNW      -0.103250
      7 C04         11.2510    -1.2470    23.2710 ca         1 RNW      -0.059300
      8 C05         12.3290    -1.7880    22.5730 ca         1 RNW      -0.103250
      9 C06         13.4810    -1.0430    22.3680 ca         1 RNW      -0.103000
     10 C07          9.9920    -2.0250    23.5550 c3         1 RNW       0.079200
     11 C08         10.1020    -3.0140    24.6820 ca         1 RNW      -0.059300
     12 C09         10.9980    -4.0810    24.6300 ca         1 RNW      -0.103250
     13 C11         10.2460    -4.8470    26.7850 ca         1 RNW      -0.105000
     14 C12          9.3500    -3.7880    26.8430 ca         1 RNW      -0.103000
     15 C16          7.8300    -3.4010    22.5960 c3         1 RNW      -0.148100
     16 N19          5.9140    -3.5540    21.1900 ns         1 RNW      -0.374400
     17 O15          9.2460    -1.8660    20.9670 o          1 RNW      -0.488000
     18 O18          7.6780    -4.9060    20.7470 o          1 RNW      -0.578100
     19 O20          5.1040    -4.1400    20.2700 oh         1 RNW      -0.422100
     20 S14          9.4840    -2.9150    22.0180 s4         1 RNW       0.244400
     21 H101        11.7670    -5.8150    25.6200 ha         1 RNW       0.115250
     22 H131         8.5700    -2.0610    25.8450 ha         1 RNW       0.110500
     23 H011        14.4730     0.8320    22.6980 ha         1 RNW       0.115000
     24 H021        12.5640     1.8100    23.9370 ha         1 RNW       0.115250
     25 H031        10.5170     0.4930    24.2900 ha         1 RNW       0.110500
     26 H051        12.2820    -2.7950    22.1750 ha         1 RNW       0.110500
     27 H061        14.3070    -1.4770    21.8200 ha         1 RNW       0.115250
     28 H071         9.1860    -1.3160    23.7630 h1         1 RNW       0.082700
     29 H091        11.6530    -4.2100    23.7770 ha         1 RNW       0.110500
     30 H111        10.3040    -5.5560    27.6000 ha         1 RNW       0.115000
     31 H121         8.7060    -3.6670    27.7040 ha         1 RNW       0.115250
     32 H161         7.3140    -2.5210    22.9830 h1         1 RNW       0.100700
     33 H162         7.9370    -4.1370    23.3950 h1         1 RNW       0.100700
     34 H191         5.4570    -2.9090    21.8190 hn         1 RNW       0.341500
     35 H201         5.1990    -3.6240    19.4590 ho         1 RNW       0.449000
@<TRIPOS>BOND
     1     1    12 ar  
     2     1    13 ar  
     3     1    21 1   
     4     2    11 ar  
     5     2    14 ar  
     6     2    22 1   
     7     3    15 1   
     8     3    16 1   
     9     3    18 2   
    10     4     5 ar  
    11     4     9 ar  
    12     4    23 1   
    13     5     6 ar  
    14     5    24 1   
    15     6     7 ar  
    16     6    25 1   
    17     7     8 ar  
    18     7    10 1   
    19     8     9 ar  
    20     8    26 1   
    21     9    27 1   
    22    10    11 1   
    23    10    20 1   
    24    10    28 1   
    25    11    12 ar  
    26    12    29 1   
    27    13    14 ar  
    28    13    30 1   
    29    14    31 1   
    30    15    20 1   
    31    15    32 1   
    32    15    33 1   
    33    16    19 1   
    34    16    34 1   
    35    17    20 2   
    36    19    35 1   
@<TRIPOS>SUBSTRUCTURE
     1 RNW         1 TEMP              0 ****  ****    0 ROOT
