@<TRIPOS>MOLECULE
RNW
   35    36     1     0     0
SMALL
No Charge or Current Charge


@<TRIPOS>ATOM
      1 C10         10.9950    -5.1430    25.5730 ca         1 RNW      -0.103000
      2 C13          9.5260    -2.7820    25.9620 ca         1 RNW      -0.103250
      3 C17          6.9280    -4.2460    21.6510 c          1 RNW       0.633100
      4 C01         13.5130     0.3240    22.8750 ca         1 RNW      -0.105000
      5 C02         12.4430     0.8570    23.6120 ca         1 RNW      -0.103000
      6 C03         11.2850     0.0890    23.8280 ca         1 RNW      -0.103250
      7 C04         11.1850    -1.2170    23.3070 ca         1 RNW      -0.059300
      8 C05         12.2670    -1.7460    22.5710 ca         1 RNW      -0.103250
      9 C06         13.4240    -0.9780    22.3550 ca         1 RNW      -0.103000
     10 C07          9.9170    -2.0350    23.5650 c3         1 RNW       0.079200
     11 C08         10.1030    -3.0400    24.7030 ca         1 RNW      -0.059300
     12 C09         10.8420    -4.2290    24.5170 ca         1 RNW      -0.103250
     13 C11         10.4150    -4.8780    26.8240 ca         1 RNW      -0.105000
     14 C12          9.6810    -3.6970    27.0180 ca         1 RNW      -0.103000
     15 C16          7.7090    -3.4840    22.7090 c3         1 RNW      -0.148100
     16 N19          6.2360    -3.4560    20.7400 ns         1 RNW      -0.374400
     17 O15          8.9400    -1.7680    21.0320 o          1 RNW      -0.488000
     18 O18          6.9130    -5.4700    21.6080 o          1 RNW      -0.578100
     19 O20          5.2400    -4.0270    19.8540 oh         1 RNW      -0.422100
     20 S14          9.2970    -2.8600    22.0160 s4         1 RNW       0.244400
     21 H101        11.5650    -6.0570    25.4210 ha         1 RNW       0.115250
     22 H131         8.9560    -1.8700    26.1270 ha         1 RNW       0.110500
     23 H011        14.4090     0.9170    22.7080 ha         1 RNW       0.115000
     24 H021        12.5110     1.8640    24.0170 ha         1 RNW       0.115250
     25 H031        10.4650     0.5120    24.4040 ha         1 RNW       0.110500
     26 H051        12.2180    -2.7520    22.1620 ha         1 RNW       0.110500
     27 H061        14.2530    -1.3930    21.7860 ha         1 RNW       0.115250
     28 H071         9.1170    -1.3400    23.8480 h1         1 RNW       0.082700
     29 H091        11.2980    -4.4510    23.5550 ha         1 RNW       0.110500
     30 H111        10.5340    -5.5860    27.6410 ha         1 RNW       0.115000
     31 H121         9.2310    -3.4900    27.9870 ha         1 RNW       0.115250
     32 H161         7.1140    -2.6380    23.0700 h1         1 RNW       0.100700
     33 H162         7.9260    -4.1670    23.5370 h1         1 RNW       0.100700
     34 H191         6.1920    -2.4480    20.8830 hn         1 RNW       0.341500
     35 H201         5.5020    -3.6920    18.9640 ho         1 RNW       0.449000
@<TRIPOS>BOND
     1     1    12 ar  
     2     1    13 ar  
     3     1    21 1   
     4     2    11 ar  
     5     2    14 ar  
     6     2    22 1   
     7     3    15 1   
     8     3    16 1   
     9     3    18 2   
    10     4     5 ar  
    11     4     9 ar  
    12     4    23 1   
    13     5     6 ar  
    14     5    24 1   
    15     6     7 ar  
    16     6    25 1   
    17     7     8 ar  
    18     7    10 1   
    19     8     9 ar  
    20     8    26 1   
    21     9    27 1   
    22    10    11 1   
    23    10    20 1   
    24    10    28 1   
    25    11    12 ar  
    26    12    29 1   
    27    13    14 ar  
    28    13    30 1   
    29    14    31 1   
    30    15    20 1   
    31    15    32 1   
    32    15    33 1   
    33    16    19 1   
    34    16    34 1   
    35    17    20 2   
    36    19    35 1   
@<TRIPOS>SUBSTRUCTURE
     1 RNW         1 TEMP              0 ****  ****    0 ROOT
