@<TRIPOS>MOLECULE
RNZ
   70    72     1     0     0
SMALL
No Charge or Current Charge


@<TRIPOS>ATOM
      1 C10         15.3370    40.2010    36.6480 ca         1 RNZ      -0.104000
      2 C17         21.7320    38.2280    39.9860 c3         1 RNZ      -0.068000
      3 C20         20.7350    37.1170    40.3950 c3         1 RNZ      -0.102767
      4 C21         17.3540    40.5450    41.7260 c3         1 RNZ      -0.036100
      5 C22         16.3070    41.6300    42.0440 ca         1 RNZ      -0.094300
      6 C24         14.4180    43.0200    41.3370 ca         1 RNZ      -0.106750
      7 C26         15.2290    43.1620    43.6210 ca         1 RNZ      -0.106750
      8 C28         18.6040    40.5600    42.6200 ca         1 RNZ      -0.094300
      9 C02         17.8240    40.5500    40.2560 c          1 RNZ       0.606100
     10 C04         19.0620    41.9310    38.5280 c3         1 RNZ       0.110700
     11 C05         18.1590    42.6680    37.4980 c3         1 RNZ      -0.036100
     12 C06         16.7680    42.0650    37.3120 ca         1 RNZ      -0.101300
     13 C07         15.6180    42.8290    37.5990 ca         1 RNZ      -0.101500
     14 C08         14.3370    42.2800    37.4180 ca         1 RNZ      -0.104000
     15 C09         14.1950    40.9640    36.9460 ca         1 RNZ      -0.098000
     16 C11         16.6180    40.7510    36.8260 ca         1 RNZ      -0.101500
     17 C12         20.4310    42.6610    38.7220 c3         1 RNZ       0.132300
     18 C14         21.2850    42.1760    39.9210 c3         1 RNZ       0.060600
     19 C16         21.0080    39.5880    40.1240 c3         1 RNZ       0.091600
     20 C18         22.1750    37.9970    38.5180 c3         1 RNZ      -0.102767
     21 C19         22.9630    38.1730    40.9270 c3         1 RNZ      -0.102767
     22 C23         15.3870    42.0420    41.0550 ca         1 RNZ      -0.101750
     23 C25         14.3420    43.5860    42.6190 ca         1 RNZ      -0.094500
     24 C27         16.1990    42.1850    43.3390 ca         1 RNZ      -0.101750
     25 C29         19.3110    41.7550    42.8770 ca         1 RNZ      -0.101750
     26 C30         20.4960    41.7340    43.6310 ca         1 RNZ      -0.106750
     27 C31         20.9880    40.5200    44.1360 ca         1 RNZ      -0.094500
     28 C32         20.2890    39.3270    43.8920 ca         1 RNZ      -0.106750
     29 C33         19.1030    39.3480    43.1380 ca         1 RNZ      -0.101750
     30 N03         18.3650    41.7420    39.8110 ns         1 RNZ      -0.520900
     31 N15         21.8670    40.7770    39.7120 ny         1 RNZ      -0.815000
     32 O01         17.7620    39.5560    39.5470 o          1 RNZ      -0.604100
     33 O13         21.2410    42.5410    37.5370 oh         1 RNZ      -0.657000
     34 H1          15.2290    39.1840    36.2780 ha         1 RNZ       0.123000
     35 H2          20.4120    37.2410    41.4360 hc         1 RNZ       0.054478
     36 H3          19.8400    37.1390    39.7600 hc         1 RNZ       0.054478
     37 H4          21.1910    36.1230    40.3010 hc         1 RNZ       0.054478
     38 H5          16.8560    39.5790    41.8700 hc         1 RNZ       0.074700
     39 H6          13.7220    43.3330    40.5620 ha         1 RNZ       0.121000
     40 H7          15.1610    43.5880    44.6200 ha         1 RNZ       0.121000
     41 H8          19.2860    40.9380    38.1180 h1         1 RNZ       0.086700
     42 H9          18.6680    42.6830    36.5270 hc         1 RNZ       0.062700
     43 H10         18.0680    43.7170    37.8040 hc         1 RNZ       0.062700
     44 H11         15.7150    43.8480    37.9670 ha         1 RNZ       0.109000
     45 H12         13.4540    42.8730    37.6460 ha         1 RNZ       0.123000
     46 H13         13.2040    40.5380    36.8080 ha         1 RNZ       0.124000
     47 H14         17.4950    40.1520    36.5900 ha         1 RNZ       0.109000
     48 H15         20.2100    43.7210    38.9190 h1         1 RNZ       0.076700
     49 H16         22.1140    42.8800    40.0430 hx         1 RNZ       0.101200
     50 H17         20.6930    42.1900    40.8390 hx         1 RNZ       0.101200
     51 H18         20.6970    39.7240    41.1640 hx         1 RNZ       0.108700
     52 H19         20.1100    39.5720    39.5010 hx         1 RNZ       0.108700
     53 H20         22.6120    36.9980    38.3960 hc         1 RNZ       0.054478
     54 H21         21.3210    38.0780    37.8340 hc         1 RNZ       0.054478
     55 H22         22.9310    38.7280    38.2070 hc         1 RNZ       0.054478
     56 H23         22.6750    38.3910    41.9630 hc         1 RNZ       0.054478
     57 H24         23.4230    37.1770    40.9080 hc         1 RNZ       0.054478
     58 H25         23.7320    38.8950    40.6290 hc         1 RNZ       0.054478
     59 H26         15.4100    41.6000    40.0630 ha         1 RNZ       0.114750
     60 H27         13.5910    44.3420    42.8380 ha         1 RNZ       0.124000
     61 H28         16.8610    41.8600    44.1380 ha         1 RNZ       0.114750
     62 H29         18.9470    42.7050    42.4910 ha         1 RNZ       0.114750
     63 H30         21.0350    42.6600    43.8220 ha         1 RNZ       0.121000
     64 H31         21.9070    40.5040    44.7180 ha         1 RNZ       0.124000
     65 H32         20.6680    38.3860    44.2820 ha         1 RNZ       0.121000
     66 H33         18.5810    38.4130    42.9450 ha         1 RNZ       0.114750
     67 H34         18.3060    42.5220    40.4530 hn         1 RNZ       0.332500
     68 H35         22.7870    40.7190    40.1950 hn         1 RNZ       0.505000
     69 H36         22.1260    40.7020    38.7040 hn         1 RNZ       0.505000
     70 H37         20.9770    43.2590    36.9180 ho         1 RNZ       0.468000
@<TRIPOS>BOND
     1     1    15 ar  
     2     1    16 ar  
     3     1    34 1   
     4     2     3 1   
     5     2    19 1   
     6     2    20 1   
     7     2    21 1   
     8     3    35 1   
     9     3    36 1   
    10     3    37 1   
    11     4     5 1   
    12     4     8 1   
    13     4     9 1   
    14     4    38 1   
    15     5    22 ar  
    16     5    24 ar  
    17     6    22 ar  
    18     6    23 ar  
    19     6    39 1   
    20     7    23 ar  
    21     7    24 ar  
    22     7    40 1   
    23     8    25 ar  
    24     8    29 ar  
    25     9    30 1   
    26     9    32 2   
    27    10    11 1   
    28    10    17 1   
    29    10    30 1   
    30    10    41 1   
    31    11    12 1   
    32    11    42 1   
    33    11    43 1   
    34    12    13 ar  
    35    12    16 ar  
    36    13    14 ar  
    37    13    44 1   
    38    14    15 ar  
    39    14    45 1   
    40    15    46 1   
    41    16    47 1   
    42    17    18 1   
    43    17    33 1   
    44    17    48 1   
    45    18    31 1   
    46    18    49 1   
    47    18    50 1   
    48    19    31 1   
    49    19    51 1   
    50    19    52 1   
    51    20    53 1   
    52    20    54 1   
    53    20    55 1   
    54    21    56 1   
    55    21    57 1   
    56    21    58 1   
    57    22    59 1   
    58    23    60 1   
    59    24    61 1   
    60    25    26 ar  
    61    25    62 1   
    62    26    27 ar  
    63    26    63 1   
    64    27    28 ar  
    65    27    64 1   
    66    28    29 ar  
    67    28    65 1   
    68    29    66 1   
    69    30    67 1   
    70    31    68 1   
    71    31    69 1   
    72    33    70 1   
@<TRIPOS>SUBSTRUCTURE
     1 RNZ         1 TEMP              0 ****  ****    0 ROOT
