@<TRIPOS>MOLECULE
RNZ
   70    72     1     0     0
SMALL
bcc


@<TRIPOS>ATOM
      1 C10         15.6920    42.1060    37.3460 ca         1 RNZ      -0.122000
      2 C17         21.2600    37.0780    39.0110 c3         1 RNZ      -0.068000
      3 C20         20.1110    36.2000    39.5130 c3         1 RNZ      -0.102767
      4 C21         17.7990    41.0440    42.1430 c3         1 RNZ      -0.036100
      5 C22         16.3060    40.8070    42.1690 ca         1 RNZ      -0.094300
      6 C24         14.0980    41.0940    41.2340 ca         1 RNZ      -0.124750
      7 C26         14.3620    39.9690    43.3360 ca         1 RNZ      -0.124750
      8 C28         18.1870    42.3590    42.7850 ca         1 RNZ      -0.094300
      9 C02         18.3670    40.8130    40.7380 c          1 RNZ       0.673100
     10 C04         19.8620    41.6830    38.9830 c3         1 RNZ       0.110700
     11 C05         19.3430    42.8340    38.1040 c3         1 RNZ      -0.036100
     12 C06         17.8440    42.9320    38.0810 ca         1 RNZ      -0.101300
     13 C07         17.1890    43.9560    38.7600 ca         1 RNZ      -0.119500
     14 C08         15.8040    44.0640    38.7290 ca         1 RNZ      -0.122000
     15 C09         15.0510    43.1390    38.0200 ca         1 RNZ      -0.116000
     16 C11         17.0760    42.0070    37.3770 ca         1 RNZ      -0.119500
     17 C12         21.3870    41.7790    39.1310 c3         1 RNZ       0.109100
     18 C14         22.0380    40.7440    40.0500 c3         1 RNZ       0.088800
     19 C16         21.1200    38.4080    39.7530 c3         1 RNZ       0.119800
     20 C18         21.1190    37.2830    37.5020 c3         1 RNZ      -0.102767
     21 C19         22.5910    36.3980    39.3310 c3         1 RNZ      -0.102767
     22 C23         15.4710    41.2730    41.1560 ca         1 RNZ      -0.119750
     23 C25         13.5370    40.4400    42.3240 ca         1 RNZ      -0.112500
     24 C27         15.7370    40.1520    43.2560 ca         1 RNZ      -0.119750
     25 C29         17.5240    43.5500    42.4890 ca         1 RNZ      -0.119750
     26 C30         17.9300    44.7460    43.0620 ca         1 RNZ      -0.124750
     27 C31         19.0010    44.7730    43.9470 ca         1 RNZ      -0.112500
     28 C32         19.6640    43.5930    44.2530 ca         1 RNZ      -0.124750
     29 C33         19.2590    42.3980    43.6740 ca         1 RNZ      -0.119750
     30 N03         19.2520    41.7200    40.2910 ns         1 RNZ      -0.587900
     31 N15         22.1670    39.4070    39.3940 ny         1 RNZ      -0.761000
     32 O01         18.0500    39.8120    40.1140 o          1 RNZ      -0.604100
     33 O13         21.9440    41.6920    37.8420 oh         1 RNZ      -0.594800
     34 H1          15.1130    41.3790    36.7920 ha         1 RNZ       0.141000
     35 H2          20.1800    36.0320    40.5890 hc         1 RNZ       0.054478
     36 H3          19.1410    36.6530    39.3030 hc         1 RNZ       0.054478
     37 H4          20.1400    35.2270    39.0200 hc         1 RNZ       0.054478
     38 H5          18.2630    40.2500    42.7400 hc         1 RNZ       0.074700
     39 H6          13.4660    41.4640    40.4360 ha         1 RNZ       0.139000
     40 H7          13.9380    39.4540    44.1880 ha         1 RNZ       0.139000
     41 H8          19.5870    40.7350    38.5180 h1         1 RNZ       0.086700
     42 H9          19.7210    42.6950    37.0900 hc         1 RNZ       0.062700
     43 H10         19.7640    43.7760    38.4700 hc         1 RNZ       0.062700
     44 H11         17.7700    44.6850    39.3150 ha         1 RNZ       0.127000
     45 H12         15.3150    44.8700    39.2610 ha         1 RNZ       0.141000
     46 H13         13.9710    43.2180    37.9950 ha         1 RNZ       0.142000
     47 H14         17.5670    41.2050    36.8370 ha         1 RNZ       0.127000
     48 H15         21.6050    42.7520    39.5950 h1         1 RNZ       0.076700
     49 H16         23.0510    41.0720    40.2810 hx         1 RNZ       0.101200
     50 H17         21.5070    40.6260    40.9920 hx         1 RNZ       0.101200
     51 H18         21.1950    38.2620    40.8310 hx         1 RNZ       0.108700
     52 H19         20.1540    38.8560    39.5350 hx         1 RNZ       0.108700
     53 H20         21.1120    36.3200    36.9890 hc         1 RNZ       0.054478
     54 H21         20.1870    37.7970    37.2550 hc         1 RNZ       0.054478
     55 H22         21.9460    37.8560    37.0760 hc         1 RNZ       0.054478
     56 H23         22.7280    36.2770    40.4080 hc         1 RNZ       0.054478
     57 H24         22.6200    35.4050    38.8800 hc         1 RNZ       0.054478
     58 H25         23.4500    36.9460    38.9370 hc         1 RNZ       0.054478
     59 H26         15.8840    41.7810    40.2940 ha         1 RNZ       0.132750
     60 H27         12.4660    40.2970    42.3830 ha         1 RNZ       0.142000
     61 H28         16.3730    39.7790    44.0500 ha         1 RNZ       0.132750
     62 H29         16.6830    43.5520    41.8080 ha         1 RNZ       0.132750
     63 H30         17.4060    45.6610    42.8180 ha         1 RNZ       0.139000
     64 H31         19.3140    45.7070    44.3950 ha         1 RNZ       0.142000
     65 H32         20.4970    43.6010    44.9440 ha         1 RNZ       0.139000
     66 H33         19.7850    41.4820    43.9160 ha         1 RNZ       0.132750
     67 H34         19.3960    42.5540    40.8430 hn         1 RNZ       0.332500
     68 H35         23.0840    39.0230    39.6250 hn         1 RNZ       0.449800
     69 H36         22.1910    39.5630    38.3810 hn         1 RNZ       0.449800
     70 H37         22.8130    42.1070    37.8400 ho         1 RNZ       0.429000
@<TRIPOS>BOND
     1     1    15 ar  
     2     1    16 ar  
     3     1    34 1   
     4     2     3 1   
     5     2    19 1   
     6     2    20 1   
     7     2    21 1   
     8     3    35 1   
     9     3    36 1   
    10     3    37 1   
    11     4     5 1   
    12     4     8 1   
    13     4     9 1   
    14     4    38 1   
    15     5    22 ar  
    16     5    24 ar  
    17     6    22 ar  
    18     6    23 ar  
    19     6    39 1   
    20     7    23 ar  
    21     7    24 ar  
    22     7    40 1   
    23     8    25 ar  
    24     8    29 ar  
    25     9    30 1   
    26     9    32 2   
    27    10    11 1   
    28    10    17 1   
    29    10    30 1   
    30    10    41 1   
    31    11    12 1   
    32    11    42 1   
    33    11    43 1   
    34    12    13 ar  
    35    12    16 ar  
    36    13    14 ar  
    37    13    44 1   
    38    14    15 ar  
    39    14    45 1   
    40    15    46 1   
    41    16    47 1   
    42    17    18 1   
    43    17    33 1   
    44    17    48 1   
    45    18    31 1   
    46    18    49 1   
    47    18    50 1   
    48    19    31 1   
    49    19    51 1   
    50    19    52 1   
    51    20    53 1   
    52    20    54 1   
    53    20    55 1   
    54    21    56 1   
    55    21    57 1   
    56    21    58 1   
    57    22    59 1   
    58    23    60 1   
    59    24    61 1   
    60    25    26 ar  
    61    25    62 1   
    62    26    27 ar  
    63    26    63 1   
    64    27    28 ar  
    65    27    64 1   
    66    28    29 ar  
    67    28    65 1   
    68    29    66 1   
    69    30    67 1   
    70    31    68 1   
    71    31    69 1   
    72    33    70 1   
@<TRIPOS>SUBSTRUCTURE
     1 RNZ         1 TEMP              0 ****  ****    0 ROOT
