@<TRIPOS>MOLECULE
RO0
   78    82     1     0     0
SMALL
No Charge or Current Charge


@<TRIPOS>ATOM
      1 C1          -1.6750     0.0260    -0.5580 ca         1 RO0      -0.075000
      2 C2          -0.5760    -0.0730     0.3280 ca         1 RO0       0.017000
      3 C3          -2.1410    -1.1560    -1.1990 ca         1 RO0       0.379300
      4 C4          -2.2760     1.2870    -0.7790 ca         1 RO0      -0.170000
      5 C5           0.0140    -1.3440     0.5310 ca         1 RO0      -0.119300
      6 C6          -0.0960     1.0820     0.9810 ca         1 RO0      -0.182000
      7 C7          -3.3340    -1.1690    -2.1600 c3         1 RO0      -0.083400
      8 N8          -1.5690    -2.3660    -0.9990 nb         1 RO0      -0.683000
      9 C9          -1.7980     2.4410    -0.1210 ca         1 RO0       0.125100
     10 C10         -0.5200    -2.4470    -0.1560 ca         1 RO0       0.321900
     11 C11          1.1980    -1.5790     1.4660 c3         1 RO0       0.226100
     12 C12         -0.6990     2.3390     0.7610 ca         1 RO0       0.138100
     13 C13         -4.6640    -0.8670    -1.4700 ca         1 RO0      -0.072300
     14 O14         -2.3790     3.6850    -0.3150 os         1 RO0      -0.318100
     15 N15          2.4580    -0.9540     0.9990 n3         1 RO0      -0.736600
     16 O16         -0.2420     3.4880     1.3870 os         1 RO0      -0.320100
     17 C17         -5.0290    -1.5590    -0.2990 ca         1 RO0      -0.160000
     18 C18         -5.5330     0.1030    -1.9990 ca         1 RO0      -0.115000
     19 C19         -3.5280     3.8820    -1.1580 c3         1 RO0       0.142900
     20 C20          3.5350    -1.0250     2.0230 c6         1 RO0       0.171800
     21 C21          2.9220    -1.4750    -0.3180 c6         1 RO0       0.171800
     22 C22          0.8900     3.4890     2.2750 c3         1 RO0       0.143900
     23 C23         -6.2510    -1.2750     0.3530 ca         1 RO0       0.115100
     24 C24         -6.7500     0.3950    -1.3610 ca         1 RO0      -0.172000
     25 C25          4.7930    -0.2410     1.5790 c6         1 RO0      -0.070400
     26 C26          4.1640    -0.7060    -0.8260 c6         1 RO0      -0.070400
     27 C27         -7.1170    -0.2900    -0.1810 ca         1 RO0       0.110100
     28 O28         -6.6310    -1.9360     1.5100 os         1 RO0      -0.323100
     29 C29          5.3160    -0.7540     0.2120 c6         1 RO0      -0.007400
     30 O30         -8.3090    -0.0270     0.4750 os         1 RO0      -0.320100
     31 C31         -5.8100    -2.9400     2.1330 c3         1 RO0       0.144900
     32 C32          6.5630     0.0240    -0.2640 ca         1 RO0      -0.100300
     33 C33         -9.2460     0.9580     0.0070 c3         1 RO0       0.145900
     34 C34          7.8110    -0.6210    -0.4660 ca         1 RO0       0.139100
     35 C35          6.4610     1.4130    -0.5050 ca         1 RO0      -0.076000
     36 C36          8.9260     0.1330    -0.9030 ca         1 RO0      -0.198000
     37 O37          7.9120    -1.9810    -0.2300 os         1 RO0      -0.347100
     38 C38          7.5740     2.1490    -0.9380 ca         1 RO0      -0.147000
     39 C39          8.8060     1.5110    -1.1370 ca         1 RO0      -0.074000
     40 C40          9.1380    -2.7120    -0.4100 c3         1 RO0       0.149900
     41 H4          -3.1120     1.3700    -1.4620 ha         1 RO0       0.127000
     42 H6           0.7500     1.0010     1.6530 ha         1 RO0       0.148000
     43 H71         -3.4100    -2.1430    -2.6580 hc         1 RO0       0.064700
     44 H72         -3.1460    -0.4530    -2.9690 hc         1 RO0       0.064700
     45 H10         -0.0920    -3.4400    -0.0270 h4         1 RO0       0.013100
     46 H111         0.9300    -1.1840     2.4550 h1         1 RO0       0.037200
     47 H112         1.3490    -2.6600     1.5950 h1         1 RO0       0.037200
     48 H17         -4.3520    -2.3130     0.0920 ha         1 RO0       0.132000
     49 H18         -5.2650     0.6400    -2.9070 ha         1 RO0       0.107000
     50 H191        -4.3790     3.2860    -0.8040 h1         1 RO0       0.041700
     51 H192        -3.8270     4.9380    -1.1520 h1         1 RO0       0.041700
     52 H193        -3.3050     3.5990    -2.1950 h1         1 RO0       0.041700
     53 H201         3.1810    -0.6070     2.9770 h1         1 RO0       0.032200
     54 H202         3.8110    -2.0740     2.2120 h1         1 RO0       0.032200
     55 H211         3.1660    -2.5450    -0.2380 h1         1 RO0       0.032200
     56 H212         2.1280    -1.3800    -1.0730 h1         1 RO0       0.032200
     57 H221         1.7930     3.1420     1.7570 h1         1 RO0       0.043033
     58 H222         1.0800     4.5030     2.6470 h1         1 RO0       0.043033
     59 H223         0.7080     2.8390     3.1410 h1         1 RO0       0.043033
     60 H24         -7.3930     1.1530    -1.7980 ha         1 RO0       0.116000
     61 H251         4.5470     0.8270     1.5220 hc         1 RO0       0.048950
     62 H252         5.5770    -0.3420     2.3410 hc         1 RO0       0.048950
     63 H261         3.8790     0.3330    -1.0370 hc         1 RO0       0.048950
     64 H262         4.5010    -1.1380    -1.7780 hc         1 RO0       0.048950
     65 H29          5.5720    -1.8120     0.3490 hc         1 RO0       0.062700
     66 H311        -5.6420    -3.7840     1.4510 h1         1 RO0       0.040367
     67 H312        -4.8390    -2.5230     2.4260 h1         1 RO0       0.040367
     68 H313        -6.3010    -3.3250     3.0350 h1         1 RO0       0.040367
     69 H331        -8.7860     1.9540    -0.0180 h1         1 RO0       0.038367
     70 H332        -9.6040     0.7090    -1.0000 h1         1 RO0       0.038367
     71 H333       -10.1150     1.0020     0.6760 h1         1 RO0       0.038367
     72 H35          5.5150     1.9280    -0.3570 ha         1 RO0       0.116000
     73 H36          9.8930    -0.3320    -1.0660 ha         1 RO0       0.115000
     74 H38          7.4810     3.2180    -1.1200 ha         1 RO0       0.115000
     75 H39          9.6680     2.0850    -1.4730 ha         1 RO0       0.111000
     76 H401         9.4820    -2.6480    -1.4500 h1         1 RO0       0.039700
     77 H402         9.9260    -2.3210     0.2480 h1         1 RO0       0.039700
     78 H403         8.9880    -3.7710    -0.1660 h1         1 RO0       0.039700
@<TRIPOS>BOND
     1     1     2 ar  
     2     1     3 ar  
     3     1     4 ar  
     4     2     5 ar  
     5     2     6 ar  
     6     3     7 1   
     7     3     8 ar  
     8     4     9 ar  
     9     4    41 1   
    10     5    10 ar  
    11     5    11 1   
    12     6    12 ar  
    13     6    42 1   
    14     7    13 1   
    15     7    43 1   
    16     7    44 1   
    17     8    10 ar  
    18     9    12 ar  
    19     9    14 1   
    20    10    45 1   
    21    11    15 1   
    22    11    46 1   
    23    11    47 1   
    24    12    16 1   
    25    13    17 ar  
    26    13    18 ar  
    27    14    19 1   
    28    15    20 1   
    29    15    21 1   
    30    16    22 1   
    31    17    23 ar  
    32    17    48 1   
    33    18    24 ar  
    34    18    49 1   
    35    19    50 1   
    36    19    51 1   
    37    19    52 1   
    38    20    25 1   
    39    20    53 1   
    40    20    54 1   
    41    21    26 1   
    42    21    55 1   
    43    21    56 1   
    44    22    57 1   
    45    22    58 1   
    46    22    59 1   
    47    23    27 ar  
    48    23    28 1   
    49    24    27 ar  
    50    24    60 1   
    51    25    29 1   
    52    25    61 1   
    53    25    62 1   
    54    26    29 1   
    55    26    63 1   
    56    26    64 1   
    57    27    30 1   
    58    28    31 1   
    59    29    32 1   
    60    29    65 1   
    61    30    33 1   
    62    31    66 1   
    63    31    67 1   
    64    31    68 1   
    65    32    34 ar  
    66    32    35 ar  
    67    33    69 1   
    68    33    70 1   
    69    33    71 1   
    70    34    36 ar  
    71    34    37 1   
    72    35    38 ar  
    73    35    72 1   
    74    36    39 ar  
    75    36    73 1   
    76    37    40 1   
    77    38    39 ar  
    78    38    74 1   
    79    39    75 1   
    80    40    76 1   
    81    40    77 1   
    82    40    78 1   
@<TRIPOS>SUBSTRUCTURE
     1 RO0         1 TEMP              0 ****  ****    0 ROOT
