@<TRIPOS>MOLECULE
RO0
   78    82     1     0     0
SMALL
abcg2


@<TRIPOS>ATOM
      1 C1          -1.6390     0.0270    -0.7080 ca         1 RO0      -0.075000
      2 C2          -0.4830    -0.1890     0.0740 ca         1 RO0       0.017000
      3 C3          -2.2630    -1.0930    -1.3210 ca         1 RO0       0.379300
      4 C4          -2.1380     1.3450    -0.8550 ca         1 RO0      -0.170000
      5 C5          -0.0210    -1.5210     0.2380 ca         1 RO0      -0.119300
      6 C6           0.1610     0.9220     0.6710 ca         1 RO0      -0.182000
      7 C7          -3.4950    -0.9330    -2.1740 c3         1 RO0      -0.083400
      8 N8          -1.8080    -2.3120    -1.1650 nb         1 RO0      -0.683000
      9 C9          -1.5190     2.4050    -0.2550 ca         1 RO0       0.125100
     10 C10         -0.7190    -2.5120    -0.3980 ca         1 RO0       0.321900
     11 C11          1.1630    -1.8590     1.1010 c3         1 RO0       0.226100
     12 C12         -0.3340     2.1870     0.5180 ca         1 RO0       0.138100
     13 C13         -4.7410    -0.6730    -1.3610 ca         1 RO0      -0.072300
     14 O14         -1.9240     3.6810    -0.3220 os         1 RO0      -0.318100
     15 N15          2.3770    -1.1880     0.6810 n3         1 RO0      -0.736600
     16 O16          0.2100     3.2940     1.0380 os         1 RO0      -0.320100
     17 C17         -5.1110    -1.5700    -0.3530 ca         1 RO0      -0.160000
     18 C18         -5.5370     0.4310    -1.5930 ca         1 RO0      -0.115000
     19 C19         -3.1040     3.9630    -1.0490 c3         1 RO0       0.142900
     20 C20          3.4270    -1.2750     1.6750 c6         1 RO0       0.171800
     21 C21          2.8370    -1.6140    -0.6240 c6         1 RO0       0.171800
     22 C22          1.3800     3.1560     1.8210 c3         1 RO0       0.143900
     23 C23         -6.2490    -1.3630     0.4060 ca         1 RO0       0.115100
     24 C24         -6.6870     0.6560    -0.8330 ca         1 RO0      -0.172000
     25 C25          4.6160    -0.4120     1.2850 c6         1 RO0      -0.070400
     26 C26          3.9910    -0.7440    -1.0980 c6         1 RO0      -0.070400
     27 C27         -7.0530    -0.2280     0.1650 ca         1 RO0       0.110100
     28 O28         -6.6780    -2.1790     1.3880 os         1 RO0      -0.323100
     29 C29          5.1460    -0.7990    -0.1010 c6         1 RO0      -0.007400
     30 O30         -8.1390    -0.1040     0.9530 os         1 RO0      -0.320100
     31 C31         -5.9230    -3.3390     1.6670 c3         1 RO0       0.144900
     32 C32          6.3450     0.0370    -0.4810 ca         1 RO0      -0.100300
     33 C33         -8.9820     1.0090     0.7430 c3         1 RO0       0.145900
     34 C34          7.6240    -0.3090    -0.0060 ca         1 RO0       0.139100
     35 C35          6.2350     1.1780    -1.2650 ca         1 RO0      -0.076000
     36 C36          8.7350     0.4670    -0.3270 ca         1 RO0      -0.198000
     37 O37          7.6950    -1.4170     0.7610 os         1 RO0      -0.347100
     38 C38          7.3380     1.9630    -1.5880 ca         1 RO0      -0.147000
     39 C39          8.5870     1.6010    -1.1170 ca         1 RO0      -0.074000
     40 C40          8.9550    -1.8410     1.2370 c3         1 RO0       0.149900
     41 H4          -3.0280     1.5060    -1.4440 ha         1 RO0       0.127000
     42 H6           1.0770     0.7450     1.2140 ha         1 RO0       0.148000
     43 H71         -3.6140    -1.8530    -2.7490 hc         1 RO0       0.064700
     44 H72         -3.3590    -0.1280    -2.9000 hc         1 RO0       0.064700
     45 H10         -0.3960    -3.5440    -0.3000 h4         1 RO0       0.013100
     46 H111         0.9530    -1.5520     2.1300 h1         1 RO0       0.037200
     47 H112         1.2790    -2.9560     1.1270 h1         1 RO0       0.037200
     48 H17         -4.4880    -2.4390    -0.1800 ha         1 RO0       0.132000
     49 H18         -5.2790     1.1380    -2.3730 ha         1 RO0       0.107000
     50 H191        -3.9680     3.4300    -0.6420 h1         1 RO0       0.041700
     51 H192        -3.2750     5.0330    -0.9580 h1         1 RO0       0.041700
     52 H193        -3.0000     3.7120    -2.1080 h1         1 RO0       0.041700
     53 H201         3.0290    -0.9360     2.6350 h1         1 RO0       0.032200
     54 H202         3.7660    -2.3170     1.8230 h1         1 RO0       0.032200
     55 H211         3.1520    -2.6740    -0.6160 h1         1 RO0       0.032200
     56 H212         2.0120    -1.5380    -1.3350 h1         1 RO0       0.032200
     57 H221         2.2090     2.7390     1.2430 h1         1 RO0       0.043033
     58 H222         1.6500     4.1550     2.1510 h1         1 RO0       0.043033
     59 H223         1.2060     2.5270     2.6980 h1         1 RO0       0.043033
     60 H24         -7.2840     1.5340    -1.0400 ha         1 RO0       0.116000
     61 H251         4.3110     0.6390     1.2750 hc         1 RO0       0.048950
     62 H252         5.3980    -0.5150     2.0400 hc         1 RO0       0.048950
     63 H261         3.6200     0.2780    -1.2110 hc         1 RO0       0.048950
     64 H262         4.3200    -1.0790    -2.0840 hc         1 RO0       0.048950
     65 H29          5.4640    -1.8460    -0.0460 hc         1 RO0       0.062700
     66 H311        -5.8510    -4.0000     0.7980 h1         1 RO0       0.040367
     67 H312        -4.9120    -3.0980     2.0080 h1         1 RO0       0.040367
     68 H313        -6.4440    -3.8630     2.4640 h1         1 RO0       0.040367
     69 H331        -8.4620     1.9560     0.9140 h1         1 RO0       0.038367
     70 H332        -9.4030     1.0190    -0.2670 h1         1 RO0       0.038367
     71 H333        -9.7950     0.9220     1.4600 h1         1 RO0       0.038367
     72 H35          5.2640     1.4720    -1.6410 ha         1 RO0       0.116000
     73 H36          9.7210     0.2020     0.0280 ha         1 RO0       0.115000
     74 H38          7.2130     2.8450    -2.2030 ha         1 RO0       0.115000
     75 H39          9.4590     2.1960    -1.3580 ha         1 RO0       0.111000
     76 H401         9.6470    -2.0660     0.4200 h1         1 RO0       0.039700
     77 H402         9.4170    -1.0990     1.8940 h1         1 RO0       0.039700
     78 H403         8.7800    -2.7500     1.8060 h1         1 RO0       0.039700
@<TRIPOS>BOND
     1     1     2 ar  
     2     1     3 ar  
     3     1     4 ar  
     4     2     5 ar  
     5     2     6 ar  
     6     3     7 1   
     7     3     8 ar  
     8     4     9 ar  
     9     4    41 1   
    10     5    10 ar  
    11     5    11 1   
    12     6    12 ar  
    13     6    42 1   
    14     7    13 1   
    15     7    43 1   
    16     7    44 1   
    17     8    10 ar  
    18     9    12 ar  
    19     9    14 1   
    20    10    45 1   
    21    11    15 1   
    22    11    46 1   
    23    11    47 1   
    24    12    16 1   
    25    13    17 ar  
    26    13    18 ar  
    27    14    19 1   
    28    15    20 1   
    29    15    21 1   
    30    16    22 1   
    31    17    23 ar  
    32    17    48 1   
    33    18    24 ar  
    34    18    49 1   
    35    19    50 1   
    36    19    51 1   
    37    19    52 1   
    38    20    25 1   
    39    20    53 1   
    40    20    54 1   
    41    21    26 1   
    42    21    55 1   
    43    21    56 1   
    44    22    57 1   
    45    22    58 1   
    46    22    59 1   
    47    23    27 ar  
    48    23    28 1   
    49    24    27 ar  
    50    24    60 1   
    51    25    29 1   
    52    25    61 1   
    53    25    62 1   
    54    26    29 1   
    55    26    63 1   
    56    26    64 1   
    57    27    30 1   
    58    28    31 1   
    59    29    32 1   
    60    29    65 1   
    61    30    33 1   
    62    31    66 1   
    63    31    67 1   
    64    31    68 1   
    65    32    34 ar  
    66    32    35 ar  
    67    33    69 1   
    68    33    70 1   
    69    33    71 1   
    70    34    36 ar  
    71    34    37 1   
    72    35    38 ar  
    73    35    72 1   
    74    36    39 ar  
    75    36    73 1   
    76    37    40 1   
    77    38    39 ar  
    78    38    74 1   
    79    39    75 1   
    80    40    76 1   
    81    40    77 1   
    82    40    78 1   
@<TRIPOS>SUBSTRUCTURE
     1 RO0         1 TEMP              0 ****  ****    0 ROOT
