@<TRIPOS>MOLECULE
RO1
  103   106     1     0     0
SMALL
No Charge or Current Charge


@<TRIPOS>ATOM
      1 O6          17.0440    -4.7800    10.3100 o          1 RO1      -0.521500
      2 S1          16.2060    -5.4830    11.2900 s6         1 RO1       1.070000
      3 O5          14.7470    -5.4460    11.1260 o          1 RO1      -0.521500
      4 C37         16.6840    -7.2130    11.2580 c3         1 RO1      -0.328100
      5 C29         16.6090    -4.8160    12.9770 c3         1 RO1      -0.218000
      6 C33         16.0820    -3.3430    13.0090 c3         1 RO1      -0.090100
      7 C34         15.8350    -5.6180    14.0740 c3         1 RO1      -0.090100
      8 C26         18.1730    -4.8410    13.2240 c3         1 RO1       0.041700
      9 N5          18.6720    -6.1850    13.5930 ns         1 RO1      -0.485900
     10 C32         19.7410    -6.8230    13.0000 c          1 RO1       0.591100
     11 O4          20.2530    -6.4120    11.9680 o          1 RO1      -0.596100
     12 C36         20.2330    -8.0880    13.7320 c3         1 RO1       0.076600
     13 O7          19.9980    -7.9940    15.1590 os         1 RO1      -0.359100
     14 C1          20.4420    -8.9570    16.0460 ca         1 RO1       0.084100
     15 C2          21.0810   -10.1430    15.6230 ca         1 RO1      -0.152000
     16 C4          21.5010   -11.0560    16.6070 ca         1 RO1      -0.128000
     17 C3          21.2750   -10.7650    17.9660 ca         1 RO1       0.300900
     18 N1          20.6640    -9.6320    18.3850 nb         1 RO1      -0.636000
     19 C5          20.2590    -8.7500    17.4340 ca         1 RO1       0.321900
     20 C24         18.6430    -3.8750    14.3550 c          1 RO1       0.592100
     21 O3          18.6130    -4.1790    15.5410 o          1 RO1      -0.608100
     22 N4          19.1130    -2.6470    13.9300 ns         1 RO1      -0.483900
     23 C15         19.7580    -1.6460    14.8140 c3         1 RO1       0.009700
     24 C19         21.3040    -1.7970    14.8190 c3         1 RO1      -0.041100
     25 C25         21.7660    -3.2030    15.1890 ca         1 RO1      -0.075300
     26 C27         22.1860    -4.1040    14.1910 ca         1 RO1      -0.096500
     27 C30         22.5960    -5.4040    14.5360 ca         1 RO1      -0.115000
     28 C35         22.5840    -5.8120    15.8810 ca         1 RO1      -0.109000
     29 C31         22.1670    -4.9170    16.8800 ca         1 RO1      -0.115000
     30 C28         21.7620    -3.6150    16.5360 ca         1 RO1      -0.096500
     31 C12         19.3040    -0.2000    14.4630 c          1 RO1       0.565100
     32 O2          18.6380     0.0580    13.4630 o          1 RO1      -0.523100
     33 C8          19.7270     0.8970    15.4730 c3         1 RO1       0.059800
     34 N2          19.5250     0.5620    16.9210 n3         1 RO1      -0.703600
     35 C6          20.2660     1.4450    17.9050 c6         1 RO1       0.108500
     36 C10         21.7790     1.7460    17.5550 c          1 RO1       0.593100
     37 O1          22.0860     2.5810    16.7120 o          1 RO1      -0.600100
     38 N3          22.7320     0.9980    18.2330 ns         1 RO1      -0.510900
     39 C17         24.1880     1.0190    18.0500 c3         1 RO1       0.134400
     40 C23         24.5580     0.5970    16.6050 c3         1 RO1      -0.103767
     41 C22         24.7790    -0.0110    19.0410 c3         1 RO1      -0.103767
     42 C21         24.7620     2.4210    18.3750 c3         1 RO1      -0.103767
     43 C9          20.1150     0.8190    19.3300 c6         1 RO1      -0.066400
     44 C13         18.6250     0.6580    19.7390 c6         1 RO1      -0.055700
     45 C11         17.8540    -0.1700    18.6720 c6         1 RO1      -0.054700
     46 C14         18.2430    -1.6790    18.7110 c6         1 RO1      -0.072400
     47 C7          18.0770     0.4400    17.2660 c6         1 RO1       0.165800
     48 C16         18.4560     0.0300    21.1540 c6         1 RO1      -0.066400
     49 C20         18.8320    -1.4740    21.1910 c6         1 RO1      -0.075400
     50 C18         18.0450    -2.2760    20.1260 c6         1 RO1      -0.072400
     51 H371        16.2350    -7.7180    12.1170 h1         1 RO1       0.106700
     52 H372        17.7750    -7.2650    11.2780 h1         1 RO1       0.106700
     53 H373        16.3030    -7.6320    10.3210 h1         1 RO1       0.106700
     54 H331        15.0130    -3.2970    12.7650 hc         1 RO1       0.060867
     55 H332        16.6130    -2.7110    12.2860 hc         1 RO1       0.060867
     56 H333        16.1960    -2.8910    14.0020 hc         1 RO1       0.060867
     57 H341        14.7510    -5.5670    13.9100 hc         1 RO1       0.060867
     58 H342        16.0330    -5.2070    15.0720 hc         1 RO1       0.060867
     59 H343        16.1130    -6.6780    14.0940 hc         1 RO1       0.060867
     60 H26         18.6850    -4.5060    12.3120 h1         1 RO1       0.104700
     61 HN5         18.3890    -6.5670    14.4900 hn         1 RO1       0.353500
     62 H361        21.3040    -8.1960    13.5190 h1         1 RO1       0.073200
     63 H362        19.6970    -8.9450    13.3070 h1         1 RO1       0.073200
     64 H2          21.2510   -10.3650    14.5730 ha         1 RO1       0.125000
     65 H4          21.9960   -11.9820    16.3290 ha         1 RO1       0.125000
     66 H3          21.5930   -11.4610    18.7420 h4         1 RO1       0.025100
     67 H5          19.7730    -7.8440    17.7940 h4         1 RO1       0.038100
     68 HN4         19.0700    -2.4540    12.9350 hn         1 RO1       0.335500
     69 H15         19.4100    -1.8190    15.8400 h1         1 RO1       0.119700
     70 H191        21.7370    -1.0820    15.5290 hc         1 RO1       0.070700
     71 H192        21.6940    -1.5170    13.8330 hc         1 RO1       0.070700
     72 H27         22.1910    -3.8020    13.1460 ha         1 RO1       0.117000
     73 H30         22.9200    -6.0950    13.7610 ha         1 RO1       0.107000
     74 H35         22.8960    -6.8190    16.1470 ha         1 RO1       0.109000
     75 H31         22.1560    -5.2320    17.9210 ha         1 RO1       0.107000
     76 H28         21.4350    -2.9300    17.3150 ha         1 RO1       0.117000
     77 H81         19.1930     1.8200    15.2130 h1         1 RO1       0.065200
     78 H82         20.7880     1.0640    15.2590 h1         1 RO1       0.065200
     79 H6          19.7830     2.4330    17.9250 h1         1 RO1       0.021700
     80 HN3         22.3650     0.3240    18.8910 hn         1 RO1       0.308500
     81 H231        24.1230    -0.3800    16.3610 hc         1 RO1       0.046256
     82 H232        25.6460     0.5190    16.4910 hc         1 RO1       0.046256
     83 H233        24.2000     1.3230    15.8670 hc         1 RO1       0.046256
     84 H221        24.5280     0.2520    20.0760 hc         1 RO1       0.046256
     85 H222        25.8720    -0.0520    18.9590 hc         1 RO1       0.046256
     86 H223        24.3870    -1.0160    18.8420 hc         1 RO1       0.046256
     87 H211        24.4220     3.1750    17.6570 hc         1 RO1       0.046256
     88 H212        25.8580     2.4070    18.3430 hc         1 RO1       0.046256
     89 H213        24.4570     2.7430    19.3780 hc         1 RO1       0.046256
     90 H91         20.6230     1.4590    20.0650 hc         1 RO1       0.059700
     91 H92         20.6190    -0.1550    19.3610 hc         1 RO1       0.059700
     92 H13         18.1840     1.6650    19.7710 hc         1 RO1       0.037700
     93 H11         16.7810    -0.0980    18.8960 hc         1 RO1       0.049700
     94 H141        19.2850    -1.8200    18.3940 hc         1 RO1       0.055700
     95 H142        17.6300    -2.2390    17.9900 hc         1 RO1       0.055700
     96 H71         17.5530    -0.1880    16.5310 h1         1 RO1       0.036700
     97 H72         17.6020     1.4320    17.2290 h1         1 RO1       0.036700
     98 H161        17.4110     0.1450    21.4740 hc         1 RO1       0.039200
     99 H162        19.0600     0.5840    21.8860 hc         1 RO1       0.039200
    100 H201        18.6200    -1.8820    22.1890 hc         1 RO1       0.040200
    101 H202        19.9110    -1.6020    21.0330 hc         1 RO1       0.040200
    102 H181        18.3680    -3.3260    20.1360 hc         1 RO1       0.040700
    103 H182        16.9760    -2.2760    20.3800 hc         1 RO1       0.040700
@<TRIPOS>BOND
     1     1     2 2   
     2     2     3 2   
     3     2     4 1   
     4     2     5 1   
     5     4    51 1   
     6     4    52 1   
     7     4    53 1   
     8     5     6 1   
     9     5     7 1   
    10     5     8 1   
    11     6    54 1   
    12     6    55 1   
    13     6    56 1   
    14     7    57 1   
    15     7    58 1   
    16     7    59 1   
    17     8     9 1   
    18     8    20 1   
    19     8    60 1   
    20     9    10 1   
    21     9    61 1   
    22    10    11 2   
    23    10    12 1   
    24    12    13 1   
    25    12    62 1   
    26    12    63 1   
    27    13    14 1   
    28    14    15 ar  
    29    14    19 ar  
    30    15    16 ar  
    31    15    64 1   
    32    16    17 ar  
    33    16    65 1   
    34    17    18 ar  
    35    17    66 1   
    36    18    19 ar  
    37    19    67 1   
    38    20    21 2   
    39    20    22 1   
    40    22    23 1   
    41    22    68 1   
    42    23    24 1   
    43    23    31 1   
    44    23    69 1   
    45    24    25 1   
    46    24    70 1   
    47    24    71 1   
    48    25    26 ar  
    49    25    30 ar  
    50    26    27 ar  
    51    26    72 1   
    52    27    28 ar  
    53    27    73 1   
    54    28    29 ar  
    55    28    74 1   
    56    29    30 ar  
    57    29    75 1   
    58    30    76 1   
    59    31    32 2   
    60    31    33 1   
    61    33    34 1   
    62    33    77 1   
    63    33    78 1   
    64    34    35 1   
    65    34    47 1   
    66    35    36 1   
    67    35    43 1   
    68    35    79 1   
    69    36    37 2   
    70    36    38 1   
    71    38    39 1   
    72    38    80 1   
    73    39    40 1   
    74    39    41 1   
    75    39    42 1   
    76    40    81 1   
    77    40    82 1   
    78    40    83 1   
    79    41    84 1   
    80    41    85 1   
    81    41    86 1   
    82    42    87 1   
    83    42    88 1   
    84    42    89 1   
    85    43    44 1   
    86    43    90 1   
    87    43    91 1   
    88    44    45 1   
    89    44    48 1   
    90    44    92 1   
    91    45    46 1   
    92    45    47 1   
    93    45    93 1   
    94    46    50 1   
    95    46    94 1   
    96    46    95 1   
    97    47    96 1   
    98    47    97 1   
    99    48    49 1   
   100    48    98 1   
   101    48    99 1   
   102    49    50 1   
   103    49   100 1   
   104    49   101 1   
   105    50   102 1   
   106    50   103 1   
@<TRIPOS>SUBSTRUCTURE
     1 RO1         1 TEMP              0 ****  ****    0 ROOT
