@<TRIPOS>MOLECULE
RO1
  103   106     1     0     0
SMALL
abcg2


@<TRIPOS>ATOM
      1 O6          16.7450    -4.1360    10.4630 o          1 RO1      -0.521500
      2 S1          15.9040    -4.8510    11.4110 s6         1 RO1       1.070000
      3 O5          14.4730    -4.5900    11.3690 o          1 RO1      -0.521500
      4 C37         16.1350    -6.5930    11.1440 c3         1 RO1      -0.328100
      5 C29         16.4830    -4.4250    13.1170 c3         1 RO1      -0.218000
      6 C33         16.1680    -2.9280    13.2440 c3         1 RO1      -0.090100
      7 C34         15.6820    -5.2340    14.1340 c3         1 RO1      -0.090100
      8 C26         18.0180    -4.6600    13.2060 c3         1 RO1       0.041700
      9 N5          18.3950    -6.0470    13.3930 ns         1 RO1      -0.485900
     10 C32         19.2290    -6.7040    12.5690 c          1 RO1       0.591100
     11 O4          19.5610    -6.3140    11.4530 o          1 RO1      -0.596100
     12 C36         19.7540    -8.0320    13.0820 c3         1 RO1       0.076600
     13 O7          19.3380    -8.2390    14.4250 os         1 RO1      -0.359100
     14 C1          20.0920    -9.0240    15.2410 ca         1 RO1       0.084100
     15 C2          21.0890    -9.8910    14.8150 ca         1 RO1      -0.152000
     16 C4          21.7810   -10.6110    15.7830 ca         1 RO1      -0.128000
     17 C3          21.4500   -10.4500    17.1200 ca         1 RO1       0.300900
     18 N1          20.4770    -9.6240    17.5280 nb         1 RO1      -0.636000
     19 C5          19.8180    -8.9300    16.6080 ca         1 RO1       0.321900
     20 C24         18.6110    -3.8950    14.4000 c          1 RO1       0.592100
     21 O3          18.4260    -4.2960    15.5460 o          1 RO1      -0.608100
     22 N4          19.3370    -2.8150    14.0830 ns         1 RO1      -0.483900
     23 C15         19.9980    -1.9970    15.0710 c3         1 RO1       0.009700
     24 C19         21.5250    -2.2690    15.1250 c3         1 RO1      -0.041100
     25 C25         21.8120    -3.6970    15.4990 ca         1 RO1      -0.075300
     26 C27         22.0270    -4.6680    14.5210 ca         1 RO1      -0.096500
     27 C30         22.2470    -5.9960    14.8750 ca         1 RO1      -0.115000
     28 C35         22.2500    -6.3730    16.2130 ca         1 RO1      -0.109000
     29 C31         22.0350    -5.4110    17.1970 ca         1 RO1      -0.115000
     30 C28         21.8210    -4.0850    16.8410 ca         1 RO1      -0.096500
     31 C12         19.7570    -0.5240    14.7830 c          1 RO1       0.565100
     32 O2          19.3690    -0.1450    13.6970 o          1 RO1      -0.523100
     33 C8          20.1070     0.4620    15.8810 c3         1 RO1       0.059800
     34 N2          19.8940    -0.0750    17.2110 n3         1 RO1      -0.703600
     35 C6          20.6000     0.6710    18.2510 c6         1 RO1       0.108500
     36 C10         22.1050     0.7240    17.9650 c          1 RO1       0.593100
     37 O1          22.7410    -0.2900    17.6750 o          1 RO1      -0.600100
     38 N3          22.6510     1.9430    18.1090 ns         1 RO1      -0.510900
     39 C17         24.0820     2.2950    17.9920 c3         1 RO1       0.134400
     40 C23         24.9090     1.4960    19.0060 c3         1 RO1      -0.103767
     41 C22         24.1820     3.7880    18.3090 c3         1 RO1      -0.103767
     42 C21         24.5680     2.0340    16.5620 c3         1 RO1      -0.103767
     43 C9          20.4000     0.0030    19.6160 c6         1 RO1      -0.066400
     44 C13         18.9190    -0.1570    19.9630 c6         1 RO1      -0.055700
     45 C11         18.1770    -0.8720    18.8210 c6         1 RO1      -0.054700
     46 C14         18.5020    -2.3690    18.7660 c6         1 RO1      -0.072400
     47 C7          18.4600    -0.1620    17.5040 c6         1 RO1       0.165800
     48 C16         18.7040    -0.8750    21.3010 c6         1 RO1      -0.066400
     49 C20         19.0280    -2.3700    21.2350 c6         1 RO1      -0.075400
     50 C18         18.2480    -3.0530    20.1090 c6         1 RO1      -0.072400
     51 H371        15.6740    -7.1550    11.9510 h1         1 RO1       0.106700
     52 H372        17.1950    -6.8050    11.0500 h1         1 RO1       0.106700
     53 H373        15.6230    -6.7940    10.2030 h1         1 RO1       0.106700
     54 H331        15.1130    -2.7460    13.0530 hc         1 RO1       0.060867
     55 H332        16.7630    -2.3290    12.5550 hc         1 RO1       0.060867
     56 H333        16.3860    -2.6060    14.2620 hc         1 RO1       0.060867
     57 H341        14.6170    -5.0460    14.0070 hc         1 RO1       0.060867
     58 H342        15.9730    -4.9190    15.1350 hc         1 RO1       0.060867
     59 H343        15.8630    -6.3040    14.0500 hc         1 RO1       0.060867
     60 H26         18.4770    -4.3160    12.2830 h1         1 RO1       0.104700
     61 HN5         18.2880    -6.4230    14.3250 hn         1 RO1       0.353500
     62 H361        20.8410    -7.9970    13.0040 h1         1 RO1       0.073200
     63 H362        19.3840    -8.8310    12.4330 h1         1 RO1       0.073200
     64 H2          21.3290   -10.0100    13.7680 ha         1 RO1       0.125000
     65 H4          22.5700   -11.2940    15.4960 ha         1 RO1       0.125000
     66 H3          21.9770   -10.9990    17.8910 h4         1 RO1       0.025100
     67 H5          19.0390    -8.2520    16.9430 h4         1 RO1       0.038100
     68 HN4         19.4300    -2.5490    13.1140 hn         1 RO1       0.335500
     69 H15         19.5800    -2.2420    16.0420 h1         1 RO1       0.119700
     70 H191        21.9620    -1.5950    15.8620 hc         1 RO1       0.070700
     71 H192        21.9510    -2.0370    14.1470 hc         1 RO1       0.070700
     72 H27         22.0180    -4.3830    13.4760 ha         1 RO1       0.117000
     73 H30         22.4230    -6.7350    14.1040 ha         1 RO1       0.107000
     74 H35         22.4190    -7.4060    16.4880 ha         1 RO1       0.109000
     75 H31         22.0360    -5.6950    18.2420 ha         1 RO1       0.107000
     76 H28         21.6510    -3.3400    17.6090 ha         1 RO1       0.117000
     77 H81         19.5480     1.3900    15.6870 h1         1 RO1       0.065200
     78 H82         21.1660     0.6940    15.7390 h1         1 RO1       0.065200
     79 H6          20.2120     1.7020    18.3070 h1         1 RO1       0.021700
     80 HN3         22.0200     2.7000    18.3220 hn         1 RO1       0.308500
     81 H231        24.5500     1.6850    20.0200 hc         1 RO1       0.046256
     82 H232        25.9540     1.8030    18.9470 hc         1 RO1       0.046256
     83 H233        24.8470     0.4290    18.8060 hc         1 RO1       0.046256
     84 H221        23.5890     4.3750    17.6050 hc         1 RO1       0.046256
     85 H222        25.2200     4.1120    18.2380 hc         1 RO1       0.046256
     86 H223        23.8260     3.9930    19.3220 hc         1 RO1       0.046256
     87 H211        24.4820     0.9790    16.3080 hc         1 RO1       0.046256
     88 H212        25.6140     2.3330    16.4680 hc         1 RO1       0.046256
     89 H213        23.9770     2.6150    15.8500 hc         1 RO1       0.046256
     90 H91         20.8930     0.6110    20.3790 hc         1 RO1       0.059700
     91 H92         20.9030    -0.9650    19.5960 hc         1 RO1       0.059700
     92 H13         18.4970     0.8510    20.0470 hc         1 RO1       0.037700
     93 H11         17.1020    -0.7750    19.0110 hc         1 RO1       0.049700
     94 H141        19.5470    -2.5110    18.4800 hc         1 RO1       0.055700
     95 H142        17.9030    -2.8380    17.9810 hc         1 RO1       0.055700
     96 H71         17.9750    -0.6990    16.6840 h1         1 RO1       0.036700
     97 H72         18.0170     0.8490    17.5270 h1         1 RO1       0.036700
     98 H161        17.6550    -0.7570    21.5920 hc         1 RO1       0.039200
     99 H162        19.3030    -0.3910    22.0780 hc         1 RO1       0.039200
    100 H201        18.7960    -2.8390    22.1950 hc         1 RO1       0.040200
    101 H202        20.1000    -2.5130    21.0690 hc         1 RO1       0.040200
    102 H181        18.5180    -4.1110    20.0490 hc         1 RO1       0.040700
    103 H182        17.1770    -3.0110    20.3390 hc         1 RO1       0.040700
@<TRIPOS>BOND
     1     1     2 2   
     2     2     3 2   
     3     2     4 1   
     4     2     5 1   
     5     4    51 1   
     6     4    52 1   
     7     4    53 1   
     8     5     6 1   
     9     5     7 1   
    10     5     8 1   
    11     6    54 1   
    12     6    55 1   
    13     6    56 1   
    14     7    57 1   
    15     7    58 1   
    16     7    59 1   
    17     8     9 1   
    18     8    20 1   
    19     8    60 1   
    20     9    10 1   
    21     9    61 1   
    22    10    11 2   
    23    10    12 1   
    24    12    13 1   
    25    12    62 1   
    26    12    63 1   
    27    13    14 1   
    28    14    15 ar  
    29    14    19 ar  
    30    15    16 ar  
    31    15    64 1   
    32    16    17 ar  
    33    16    65 1   
    34    17    18 ar  
    35    17    66 1   
    36    18    19 ar  
    37    19    67 1   
    38    20    21 2   
    39    20    22 1   
    40    22    23 1   
    41    22    68 1   
    42    23    24 1   
    43    23    31 1   
    44    23    69 1   
    45    24    25 1   
    46    24    70 1   
    47    24    71 1   
    48    25    26 ar  
    49    25    30 ar  
    50    26    27 ar  
    51    26    72 1   
    52    27    28 ar  
    53    27    73 1   
    54    28    29 ar  
    55    28    74 1   
    56    29    30 ar  
    57    29    75 1   
    58    30    76 1   
    59    31    32 2   
    60    31    33 1   
    61    33    34 1   
    62    33    77 1   
    63    33    78 1   
    64    34    35 1   
    65    34    47 1   
    66    35    36 1   
    67    35    43 1   
    68    35    79 1   
    69    36    37 2   
    70    36    38 1   
    71    38    39 1   
    72    38    80 1   
    73    39    40 1   
    74    39    41 1   
    75    39    42 1   
    76    40    81 1   
    77    40    82 1   
    78    40    83 1   
    79    41    84 1   
    80    41    85 1   
    81    41    86 1   
    82    42    87 1   
    83    42    88 1   
    84    42    89 1   
    85    43    44 1   
    86    43    90 1   
    87    43    91 1   
    88    44    45 1   
    89    44    48 1   
    90    44    92 1   
    91    45    46 1   
    92    45    47 1   
    93    45    93 1   
    94    46    50 1   
    95    46    94 1   
    96    46    95 1   
    97    47    96 1   
    98    47    97 1   
    99    48    49 1   
   100    48    98 1   
   101    48    99 1   
   102    49    50 1   
   103    49   100 1   
   104    49   101 1   
   105    50   102 1   
   106    50   103 1   
@<TRIPOS>SUBSTRUCTURE
     1 RO1         1 TEMP              0 ****  ****    0 ROOT
