@<TRIPOS>MOLECULE
RO2
   55    60     1     0     0
SMALL
abcg2


@<TRIPOS>ATOM
      1 C1          -2.1530    -0.1830    -8.8250 ca         1 RO2      -0.131000
      2 C3          -0.7620    -0.1000    -8.7700 ca         1 RO2       0.138100
      3 O3          -0.0910    -0.0640    -9.9360 oh         1 RO2      -0.531100
      4 C4          -0.1200    -0.0560    -7.5390 ca         1 RO2      -0.164000
      5 C2          -0.8610    -0.0920    -6.3580 ca         1 RO2      -0.073900
      6 C6          -2.2500    -0.1780    -6.4140 ca         1 RO2      -0.140000
      7 C5          -2.8820    -0.2220    -7.6490 ca         1 RO2      -0.076000
      8 C7          -0.1440    -0.0420    -5.0850 cc         1 RO2       0.477400
      9 N1          -0.7720     0.0170    -3.8790 na         1 RO2      -0.300600
     10 C8           0.1940     0.0490    -2.9130 ca         1 RO2      -0.089200
     11 C9           1.4060     0.0070    -3.6240 ca         1 RO2       0.085400
     12 N2           1.1610    -0.0490    -4.9670 nd         1 RO2      -0.578100
     13 C10          2.6130     0.0250    -2.9240 ca         1 RO2      -0.053000
     14 C11          2.5660     0.0860    -1.5470 ca         1 RO2      -0.124000
     15 C12          1.3430     0.1310    -0.8460 ca         1 RO2      -0.108900
     16 C13          0.1320     0.1090    -1.5320 ca         1 RO2      -0.055000
     17 C14          1.3070     0.1920     0.6120 cc         1 RO2       0.486400
     18 N3           0.2180     0.0380     1.3330 nd         1 RO2      -0.657700
     19 C15          0.6170     0.1760     2.6290 ca         1 RO2       0.520000
     20 C16          1.9930     0.4190     2.6830 ca         1 RO2      -0.180200
     21 N4           2.4050     0.4210     1.3780 na         1 RO2      -0.295600
     22 C17          2.6080     0.5910     3.9140 ca         1 RO2      -0.037000
     23 C18          1.7940     0.5090     5.0230 ca         1 RO2      -0.197000
     24 C19          0.3990     0.2630     4.8840 ca         1 RO2       0.601900
     25 N7          -0.1710     0.1060     3.6970 nb         1 RO2      -0.700000
     26 N5          -0.4110     0.1340     5.9940 nh         1 RO2      -0.765300
     27 C21         -1.8400    -0.0190     5.7870 c6         1 RO2       0.210300
     28 C22         -2.4950    -0.6300     7.0110 c6         1 RO2       0.153300
     29 N6          -2.2170     0.1440     8.2030 n3         1 RO2      -0.712600
     30 C23         -0.7870     0.2130     8.4080 c6         1 RO2       0.153300
     31 C24         -0.0980     0.8510     7.2180 c6         1 RO2       0.210300
     32 C25         -2.8980    -0.3920     9.3590 c3         1 RO2       0.152100
     33 H1          -2.6540    -0.2190    -9.7840 ha         1 RO2       0.132000
     34 HO3          0.8580    -0.0150    -9.7780 ho         1 RO2       0.470000
     35 H4           0.9610     0.0080    -7.4880 ha         1 RO2       0.142000
     36 H6          -2.8560    -0.2190    -5.5190 ha         1 RO2       0.108000
     37 H5          -3.9600    -0.2880    -7.6940 ha         1 RO2       0.119000
     38 HN1         -1.7660     0.0450    -3.7160 hn         1 RO2       0.363000
     39 H10          3.5610    -0.0130    -3.4450 ha         1 RO2       0.131000
     40 H11          3.5030     0.0850    -1.0060 ha         1 RO2       0.105000
     41 H13         -0.8080     0.1430    -0.9990 ha         1 RO2       0.150000
     42 HN4          3.3400     0.6110     1.0550 hn         1 RO2       0.359000
     43 H17          3.6690     0.7720     4.0180 ha         1 RO2       0.119000
     44 H18          2.2450     0.6190     5.9970 ha         1 RO2       0.122000
     45 H211        -2.0160    -0.6700     4.9340 h1         1 RO2       0.053450
     46 H212        -2.3080     0.9490     5.5600 h1         1 RO2       0.053450
     47 H221        -2.1550    -1.6750     7.1200 h1         1 RO2       0.039450
     48 H222        -3.5750    -0.6610     6.8450 h1         1 RO2       0.039450
     49 H231        -0.5760     0.8180     9.2930 h1         1 RO2       0.039450
     50 H232        -0.3520    -0.7870     8.5850 h1         1 RO2       0.039450
     51 H241         0.9720     0.8410     7.4100 h1         1 RO2       0.053450
     52 H242        -0.4050     1.9030     7.1370 h1         1 RO2       0.053450
     53 H253        -2.5980    -1.4240     9.5990 h1         1 RO2       0.031367
     54 H252        -3.9760    -0.3890     9.1940 h1         1 RO2       0.031367
     55 H251        -2.6920     0.2280    10.2330 h1         1 RO2       0.031367
@<TRIPOS>BOND
     1     1     2 ar  
     2     1     7 ar  
     3     1    33 1   
     4     2     3 1   
     5     2     4 ar  
     6     3    34 1   
     7     4     5 ar  
     8     4    35 1   
     9     5     6 ar  
    10     5     8 1   
    11     6     7 ar  
    12     6    36 1   
    13     7    37 1   
    14     8     9 1   
    15     8    12 2   
    16     9    10 1   
    17     9    38 1   
    18    10    11 ar  
    19    10    16 ar  
    20    11    12 1   
    21    11    13 ar  
    22    13    14 ar  
    23    13    39 1   
    24    14    15 ar  
    25    14    40 1   
    26    15    16 ar  
    27    15    17 1   
    28    16    41 1   
    29    17    18 2   
    30    17    21 1   
    31    18    19 1   
    32    19    20 ar  
    33    19    25 ar  
    34    20    21 1   
    35    20    22 ar  
    36    21    42 1   
    37    22    23 ar  
    38    22    43 1   
    39    23    24 ar  
    40    23    44 1   
    41    24    25 ar  
    42    24    26 1   
    43    26    27 1   
    44    26    31 1   
    45    27    28 1   
    46    27    45 1   
    47    27    46 1   
    48    28    29 1   
    49    28    47 1   
    50    28    48 1   
    51    29    30 1   
    52    29    32 1   
    53    30    31 1   
    54    30    49 1   
    55    30    50 1   
    56    31    51 1   
    57    31    52 1   
    58    32    53 1   
    59    32    54 1   
    60    32    55 1   
@<TRIPOS>SUBSTRUCTURE
     1 RO2         1 TEMP              0 ****  ****    0 ROOT
