@<TRIPOS>MOLECULE
RO2
   55    60     1     0     0
SMALL
No Charge or Current Charge


@<TRIPOS>ATOM
      1 C1          -2.1440    -0.1250    -9.0190 ca         1 RO2      -0.131000
      2 C3          -0.7460    -0.0420    -8.9760 ca         1 RO2       0.138100
      3 O3          -0.0380    -0.0080   -10.1410 oh         1 RO2      -0.531100
      4 C4          -0.0800     0.0060    -7.7390 ca         1 RO2      -0.164000
      5 C2          -0.8060    -0.0280    -6.5240 ca         1 RO2      -0.073900
      6 C6          -2.2180    -0.1120    -6.5870 ca         1 RO2      -0.140000
      7 C5          -2.8810    -0.1600    -7.8250 ca         1 RO2      -0.076000
      8 C7          -0.1010     0.0230    -5.2290 cc         1 RO2       0.477400
      9 N1          -0.7390    -0.0050    -3.9890 na         1 RO2      -0.300600
     10 C8           0.2320     0.0590    -3.0370 ca         1 RO2      -0.089200
     11 C9           1.4210     0.1240    -3.6960 ca         1 RO2       0.085400
     12 N2           1.2390     0.1040    -5.0750 nd         1 RO2      -0.578100
     13 C10          2.6240     0.2010    -2.9840 ca         1 RO2      -0.053000
     14 C11          2.5720     0.2080    -1.5720 ca         1 RO2      -0.124000
     15 C12          1.3260     0.1400    -0.8820 ca         1 RO2      -0.108900
     16 C13          0.1300     0.0630    -1.6400 ca         1 RO2      -0.055000
     17 C14          1.2670     0.1470     0.5890 cc         1 RO2       0.486400
     18 N3           0.1330     0.0850     1.3160 nd         1 RO2      -0.657700
     19 C15          0.5540     0.1200     2.6370 ca         1 RO2       0.520000
     20 C16          1.9220     0.2010     2.6930 ca         1 RO2      -0.180200
     21 N4           2.3840     0.2190     1.4130 na         1 RO2      -0.295600
     22 C17          2.6190     0.2450     3.9000 ca         1 RO2      -0.037000
     23 C18          1.8190     0.2050     5.0530 ca         1 RO2      -0.197000
     24 C19          0.4110     0.1300     4.9230 ca         1 RO2       0.601900
     25 N7          -0.2180     0.0810     3.7280 nb         1 RO2      -0.700000
     26 N5          -0.4280     0.0840     6.0540 nh         1 RO2      -0.765300
     27 C21         -1.8520    -0.3790     5.9500 c6         1 RO2       0.210300
     28 C22         -2.4440    -0.8260     7.3260 c6         1 RO2       0.153300
     29 N6          -2.2860     0.2090     8.3910 n3         1 RO2      -0.712600
     30 C23         -0.8450     0.5840     8.5190 c6         1 RO2       0.153300
     31 C24         -0.2230     1.0650     7.1690 c6         1 RO2       0.210300
     32 C25         -2.8860    -0.2000     9.6790 c3         1 RO2       0.152100
     33 H1          -2.6570    -0.1620    -9.9770 ha         1 RO2       0.132000
     34 HO3          0.9180     0.0500    -9.9260 ho         1 RO2       0.470000
     35 H4           1.0050     0.0710    -7.7180 ha         1 RO2       0.142000
     36 H6          -2.8150    -0.1400    -5.6790 ha         1 RO2       0.108000
     37 H5          -3.9670    -0.2240    -7.8590 ha         1 RO2       0.119000
     38 HN1         -1.7360    -0.0630    -3.8410 hn         1 RO2       0.363000
     39 H10          3.5750     0.2530    -3.5080 ha         1 RO2       0.131000
     40 H11          3.5080     0.2670    -1.0220 ha         1 RO2       0.105000
     41 H13         -0.8450     0.0090    -1.1590 ha         1 RO2       0.150000
     42 HN4          3.3460     0.2730     1.1050 hn         1 RO2       0.359000
     43 H17          3.7050     0.3010     3.9470 ha         1 RO2       0.119000
     44 H18          2.2820     0.2150     6.0340 ha         1 RO2       0.122000
     45 H211        -1.9310    -1.2320     5.2600 h1         1 RO2       0.053450
     46 H212        -2.4780     0.4290     5.5440 h1         1 RO2       0.053450
     47 H221        -1.9440    -1.7580     7.6310 h1         1 RO2       0.039450
     48 H222        -3.5080    -1.0670     7.1850 h1         1 RO2       0.039450
     49 H231        -0.7260     1.3850     9.2630 h1         1 RO2       0.039450
     50 H232        -0.2640    -0.2770     8.8820 h1         1 RO2       0.039450
     51 H241         0.8450     1.2580     7.3390 h1         1 RO2       0.053450
     52 H242        -0.6810     2.0280     6.8980 h1         1 RO2       0.053450
     53 H253        -2.3910    -1.0970    10.0750 h1         1 RO2       0.031367
     54 H252        -3.9540    -0.4230     9.5550 h1         1 RO2       0.031367
     55 H251        -2.7910     0.6020    10.4230 h1         1 RO2       0.031367
@<TRIPOS>BOND
     1     1     2 ar  
     2     1     7 ar  
     3     1    33 1   
     4     2     3 1   
     5     2     4 ar  
     6     3    34 1   
     7     4     5 ar  
     8     4    35 1   
     9     5     6 ar  
    10     5     8 1   
    11     6     7 ar  
    12     6    36 1   
    13     7    37 1   
    14     8     9 1   
    15     8    12 2   
    16     9    10 1   
    17     9    38 1   
    18    10    11 ar  
    19    10    16 ar  
    20    11    12 1   
    21    11    13 ar  
    22    13    14 ar  
    23    13    39 1   
    24    14    15 ar  
    25    14    40 1   
    26    15    16 ar  
    27    15    17 1   
    28    16    41 1   
    29    17    18 2   
    30    17    21 1   
    31    18    19 1   
    32    19    20 ar  
    33    19    25 ar  
    34    20    21 1   
    35    20    22 ar  
    36    21    42 1   
    37    22    23 ar  
    38    22    43 1   
    39    23    24 ar  
    40    23    44 1   
    41    24    25 ar  
    42    24    26 1   
    43    26    27 1   
    44    26    31 1   
    45    27    28 1   
    46    27    45 1   
    47    27    46 1   
    48    28    29 1   
    49    28    47 1   
    50    28    48 1   
    51    29    30 1   
    52    29    32 1   
    53    30    31 1   
    54    30    49 1   
    55    30    50 1   
    56    31    51 1   
    57    31    52 1   
    58    32    53 1   
    59    32    54 1   
    60    32    55 1   
@<TRIPOS>SUBSTRUCTURE
     1 RO2         1 TEMP              0 ****  ****    0 ROOT
