@<TRIPOS>MOLECULE
RO3
   30    31     1     0     0
SMALL
No Charge or Current Charge


@<TRIPOS>ATOM
      1 C5           3.3290     1.8060     1.5370 ca         1 RO3      -0.137500
      2 C6           3.4050     0.4250     1.2880 ca         1 RO3       0.003000
      3 C9           3.1480     4.2120     0.7460 c3         1 RO3      -0.057800
      4 C10          3.2340     2.7190     0.4710 ca         1 RO3      -0.016300
      5 C1           0.8020    -1.8190    -0.8890 c          1 RO3       0.774500
      6 O1           0.8580    -1.1920    -1.9270 o          1 RO3      -0.627100
      7 N1          -0.3330    -2.1460    -0.2090 ne         1 RO3      -0.770100
      8 C4          -0.9540    -1.1720     0.3790 cd         1 RO3       0.667100
      9 O3           4.1310    -2.4910     0.7510 o          1 RO3      -0.530500
     10 C15         -2.7860    -0.3730     1.6370 cc         1 RO3       0.020000
     11 C14         -1.9670     0.7330     1.5430 cd         1 RO3      -0.135700
     12 C12          3.2970     0.8590    -1.1090 ca         1 RO3       0.003000
     13 O2           3.8000    -2.0600    -1.7530 o          1 RO3      -0.530500
     14 Br2         -2.3140     2.4360     2.2750 br         1 RO3       0.010300
     15 S16         -0.4580     0.4970     0.6580 ss         1 RO3       0.058200
     16 N17         -2.1550    -1.4210     0.9660 na         1 RO3      -0.717200
     17 N5           1.8370    -2.2900    -0.1920 ns         1 RO3      -0.564300
     18 S2           3.4270    -1.8290    -0.3520 sy         1 RO3       1.198300
     19 C11          3.3900    -0.0540    -0.0380 ca         1 RO3      -0.301500
     20 C8           3.2220     2.2380    -0.8510 ca         1 RO3      -0.137500
     21 H5           3.3410     2.1660     2.5630 ha         1 RO3       0.117000
     22 H6           3.4680    -0.2650     2.1290 ha         1 RO3       0.138000
     23 H91C         4.1490     4.6550     0.8090 hc         1 RO3       0.048700
     24 H92C         2.5990     4.7340    -0.0460 hc         1 RO3       0.048700
     25 H93C         2.6310     4.4140     1.6920 hc         1 RO3       0.048700
     26 H8           3.1490     2.9340    -1.6830 ha         1 RO3       0.117000
     27 HA           1.6580    -2.7610     0.6730 hn         1 RO3       0.357500
     28 H17         -2.5380    -2.3580     0.8900 hn         1 RO3       0.532000
     29 H15         -3.7540    -0.4740     2.1320 h4         1 RO3       0.243000
     30 H12          3.2710     0.5080    -2.1400 ha         1 RO3       0.138000
@<TRIPOS>BOND
     1     1     2 ar  
     2     1     4 ar  
     3     1    21 1   
     4     2    19 ar  
     5     2    22 1   
     6     3     4 1   
     7     3    23 1   
     8     3    24 1   
     9     3    25 1   
    10     4    20 ar  
    11     5     6 2   
    12     5     7 1   
    13     5    17 1   
    14     7     8 2   
    15     8    15 1   
    16     8    16 1   
    17     9    18 2   
    18    10    11 2   
    19    10    16 1   
    20    10    29 1   
    21    11    14 1   
    22    11    15 1   
    23    12    19 ar  
    24    12    20 ar  
    25    12    30 1   
    26    13    18 2   
    27    16    28 1   
    28    17    18 1   
    29    17    27 1   
    30    18    19 1   
    31    20    26 1   
@<TRIPOS>SUBSTRUCTURE
     1 RO3         1 TEMP              0 ****  ****    0 ROOT
