@<TRIPOS>MOLECULE
RO3
   30    31     1     0     0
SMALL
abcg2


@<TRIPOS>ATOM
      1 C5           4.3710     1.8050     1.3230 ca         1 RO3      -0.137500
      2 C6           4.1200     0.4860     0.9890 ca         1 RO3       0.003000
      3 C9           4.3400     4.2670     0.8150 c3         1 RO3      -0.057800
      4 C10          4.0300     2.8450     0.4580 ca         1 RO3      -0.016300
      5 C1           0.6200    -1.3130     0.0770 c          1 RO3       0.774500
      6 O1           0.4340    -0.4430    -0.7640 o          1 RO3      -0.627100
      7 N1          -0.2960    -1.8090     0.9400 ne         1 RO3      -0.770100
      8 C4          -1.4930    -1.3060     0.8590 cd         1 RO3       0.667100
      9 O3           4.2580    -2.3110    -0.0890 o          1 RO3      -0.530500
     10 C15         -3.7120    -1.0990     1.4740 cc         1 RO3       0.020000
     11 C14         -3.6700    -0.1830     0.4980 cd         1 RO3      -0.135700
     12 C12          3.1580     1.2160    -1.1070 ca         1 RO3       0.003000
     13 O2           2.8990    -1.5650    -2.0610 o          1 RO3      -0.530500
     14 BR2         -5.0590     0.8830    -0.0960 br         1 RO3       0.010300
     15 S16         -2.0830    -0.0640    -0.2240 ss         1 RO3       0.058200
     16 N17         -2.4950    -1.7090     1.6550 na         1 RO3      -0.717200
     17 N5           1.8590    -1.9000     0.2380 ns         1 RO3      -0.564300
     18 S2           3.2060    -1.4800    -0.6480 sy         1 RO3       1.198300
     19 C11          3.5120     0.2030    -0.2280 ca         1 RO3      -0.301500
     20 C8           3.4220     2.5300    -0.7560 ca         1 RO3      -0.137500
     21 H5           4.8430     2.0300     2.2710 ha         1 RO3       0.117000
     22 H6           4.3970    -0.3040     1.6740 ha         1 RO3       0.138000
     23 H91C         5.3270     4.5460     0.4420 hc         1 RO3       0.048700
     24 H92C         3.6190     4.9570     0.3760 hc         1 RO3       0.048700
     25 H93C         4.3450     4.4150     1.8930 hc         1 RO3       0.048700
     26 H8           3.1470     3.3220    -1.4410 ha         1 RO3       0.117000
     27 HA           1.9980    -2.5660     0.9880 hn         1 RO3       0.357500
     28 H17         -2.3430    -2.4260     2.3510 hn         1 RO3       0.532000
     29 H15         -4.5490    -1.3860     2.0900 h4         1 RO3       0.243000
     30 H12          2.6840     0.9920    -2.0510 ha         1 RO3       0.138000
@<TRIPOS>BOND
     1     1     2 ar  
     2     1     4 ar  
     3     1    21 1   
     4     2    19 ar  
     5     2    22 1   
     6     3     4 1   
     7     3    23 1   
     8     3    24 1   
     9     3    25 1   
    10     4    20 ar  
    11     5     6 2   
    12     5     7 1   
    13     5    17 1   
    14     7     8 2   
    15     8    15 1   
    16     8    16 1   
    17     9    18 2   
    18    10    11 2   
    19    10    16 1   
    20    10    29 1   
    21    11    14 1   
    22    11    15 1   
    23    12    19 ar  
    24    12    20 ar  
    25    12    30 1   
    26    13    18 2   
    27    16    28 1   
    28    17    18 1   
    29    17    27 1   
    30    18    19 1   
    31    20    26 1   
@<TRIPOS>SUBSTRUCTURE
     1 RO3         1 TEMP              0 ****  ****    0 ROOT
