@<TRIPOS>MOLECULE
RO4
   63    62     1     0     0
SMALL
abcg2


@<TRIPOS>ATOM
      1 O1          -0.1350     0.0740    -5.8520 o          1 RO4      -0.575100
      2 O3          -0.1760     1.8930    -1.0990 o          1 RO4      -0.611100
      3 O4           0.8870    -0.6410     1.0310 o          1 RO4      -0.605100
      4 O29         -0.9430     0.8220     5.1470 o          1 RO4      -0.495000
      5 O30          1.1300     0.3580     5.8420 os         1 RO4      -0.444100
      6 O2           1.5960     1.6670    -7.2000 oh         1 RO4      -0.427100
      7 N6           1.3010     1.8190    -5.8790 ns         1 RO4      -0.386400
      8 N7          -0.2050     0.6270     2.5490 ns         1 RO4      -0.497900
      9 N5          -1.0530    -0.1630    -0.8610 ns         1 RO4      -0.479900
     10 C8           0.3570     1.0470    -5.3080 c          1 RO4       0.601100
     11 C11         -0.3840     0.7770    -1.5540 c          1 RO4       0.603100
     12 C13         -0.1040    -0.0210     1.3780 c          1 RO4       0.589100
     13 C28          0.2220     0.6130     4.9200 c          1 RO4       0.584100
     14 C10          0.1280     0.3440    -2.9130 c3         1 RO4      -0.128700
     15 C12         -1.3770     0.0150     0.5280 c3         1 RO4       0.036700
     16 C14          0.8450     0.6340     3.5360 c3         1 RO4       0.055700
     17 C9          -0.0200     1.4900    -3.9130 c3         1 RO4      -0.150400
     18 C31          0.7180     0.3510     7.2210 c3         1 RO4       0.166600
     19 C15          1.6020    -0.1120    -2.7630 c3         1 RO4      -0.072400
     20 C19         -2.3270    -1.0880     1.0050 c3         1 RO4      -0.086400
     21 C32          1.9360     0.0560     8.0620 c3         1 RO4      -0.098100
     22 C17          3.3970    -1.7970    -3.1670 c3         1 RO4      -0.089600
     23 C18          1.1340    -2.5780    -2.4280 c3         1 RO4      -0.089600
     24 C21         -4.4640    -2.3480     0.7820 c3         1 RO4      -0.091100
     25 C22         -4.3940     0.0650     0.0940 c3         1 RO4      -0.091100
     26 C27          1.7770     1.8380     3.3790 c3         1 RO4      -0.104100
     27 HO2          2.4010     1.1350    -7.2370 ho         1 RO4       0.446000
     28 HN6          1.5800     2.7050    -5.4840 hn         1 RO4       0.335500
     29 HN7         -1.0350     1.1660     2.7430 hn         1 RO4       0.334500
     30 HN5         -1.0950    -1.0980    -1.2340 hn         1 RO4       0.323500
     31 H10         -0.4790    -0.4910    -3.2730 hc         1 RO4       0.079700
     32 H12         -1.8610     0.9870     0.6540 h1         1 RO4       0.084700
     33 H14          1.4310    -0.2790     3.4160 h1         1 RO4       0.102700
     34 H16          1.5850    -1.6230    -4.2890 hc         1 RO4       0.056700
     35 H20         -3.3360    -1.5410    -0.8350 hc         1 RO4       0.046700
     36 H91         -1.0620     1.8210    -3.9560 hc         1 RO4       0.074700
     37 H92          0.5710     2.3490    -3.5900 hc         1 RO4       0.074700
     38 H311        -0.0530    -0.4070     7.3670 h1         1 RO4       0.050200
     39 H312         0.2910     1.3230     7.4780 h1         1 RO4       0.050200
     40 H151         2.2450     0.5860    -3.3070 hc         1 RO4       0.054200
     41 H152         1.9190    -0.0400    -1.7180 hc         1 RO4       0.054200
     42 H191        -1.7880    -2.0420     1.0120 hc         1 RO4       0.056200
     43 H192        -2.5950    -0.8770     2.0450 hc         1 RO4       0.056200
     44 H321         1.6470     0.0450     9.1120 hc         1 RO4       0.048367
     45 H322         2.3640    -0.9170     7.8220 hc         1 RO4       0.048367
     46 H323         2.7040     0.8180     7.9340 hc         1 RO4       0.048367
     47 H171         3.6410    -2.8010    -3.5180 hc         1 RO4       0.033867
     48 H172         3.9580    -1.0870    -3.7770 hc         1 RO4       0.033867
     49 H173         3.7560    -1.7090    -2.1390 hc         1 RO4       0.033867
     50 H181         1.3240    -2.4560    -1.3590 hc         1 RO4       0.033867
     51 H182         0.0560    -2.5150    -2.5840 hc         1 RO4       0.033867
     52 H183         1.4320    -3.5880    -2.7110 hc         1 RO4       0.033867
     53 H211        -5.3530    -2.5320     0.1760 hc         1 RO4       0.036200
     54 H212        -3.9100    -3.2860     0.8550 hc         1 RO4       0.036200
     55 H213        -4.7990    -2.0820     1.7880 hc         1 RO4       0.036200
     56 H221        -4.6450     0.4390     1.0890 hc         1 RO4       0.036200
     57 H222        -3.8410     0.8460    -0.4280 hc         1 RO4       0.036200
     58 H223        -5.3300    -0.0850    -0.4470 hc         1 RO4       0.036200
     59 H271         1.2290     2.7740     3.4890 hc         1 RO4       0.053033
     60 H272         2.5810     1.8180     4.1140 hc         1 RO4       0.053033
     61 H273         2.2270     1.8210     2.3880 hc         1 RO4       0.053033
     62 C16          1.8950    -1.5350    -3.2410 c3         1 RO4      -0.062700
     63 C20         -3.6080    -1.2380     0.1820 c3         1 RO4      -0.056700
@<TRIPOS>BOND
     1     1    10 2   
     2     2    11 2   
     3     3    12 2   
     4     4    13 2   
     5     5    13 1   
     6     5    18 1   
     7     6     7 1   
     8     6    27 1   
     9     7    10 1   
    10     7    28 1   
    11     8    12 1   
    12     8    16 1   
    13     8    29 1   
    14     9    11 1   
    15     9    15 1   
    16     9    30 1   
    17    10    17 1   
    18    11    14 1   
    19    12    15 1   
    20    13    16 1   
    21    14    17 1   
    22    14    19 1   
    23    14    31 1   
    24    15    20 1   
    25    15    32 1   
    26    16    26 1   
    27    16    33 1   
    28    17    36 1   
    29    17    37 1   
    30    18    21 1   
    31    18    38 1   
    32    18    39 1   
    33    19    40 1   
    34    19    41 1   
    35    19    62 1   
    36    20    42 1   
    37    20    43 1   
    38    20    63 1   
    39    21    44 1   
    40    21    45 1   
    41    21    46 1   
    42    22    47 1   
    43    22    48 1   
    44    22    49 1   
    45    22    62 1   
    46    23    50 1   
    47    23    51 1   
    48    23    52 1   
    49    23    62 1   
    50    24    53 1   
    51    24    54 1   
    52    24    55 1   
    53    24    63 1   
    54    25    56 1   
    55    25    57 1   
    56    25    58 1   
    57    25    63 1   
    58    26    59 1   
    59    26    60 1   
    60    26    61 1   
    61    34    62 1   
    62    35    63 1   
@<TRIPOS>SUBSTRUCTURE
     1 RO4         1 TEMP              0 ****  ****    0 ROOT
