@<TRIPOS>MOLECULE
RO4
   63    62     1     0     0
SMALL
No Charge or Current Charge


@<TRIPOS>ATOM
      1 O1          -0.7530    -2.6530    -4.4830 o          1 RO4      -0.575100
      2 O3          -0.4630     1.6650    -1.6310 o          1 RO4      -0.611100
      3 O4           1.0350    -1.1780     1.8330 o          1 RO4      -0.605100
      4 O29         -1.0870     1.1110     5.6670 o          1 RO4      -0.495000
      5 O30          0.4360    -0.1460     6.8390 os         1 RO4      -0.444100
      6 O2          -0.5500    -2.2490    -7.2580 oh         1 RO4      -0.427100
      7 N6          -0.3710    -1.2310    -6.2420 ns         1 RO4      -0.386400
      8 N7          -0.0330     0.2900     3.2040 ns         1 RO4      -0.497900
      9 N5          -0.2240    -0.2830    -0.4720 ns         1 RO4      -0.479900
     10 C8          -0.5950    -1.5120    -4.8980 c          1 RO4       0.601100
     11 C11         -0.1330     0.4880    -1.6110 c          1 RO4       0.603100
     12 C13          0.1760    -0.3170     1.9840 c          1 RO4       0.589100
     13 C28         -0.0770     0.4160     5.6970 c          1 RO4       0.584100
     14 C10          0.4140    -0.2420    -2.8570 c3         1 RO4      -0.128700
     15 C12         -0.7520     0.1730     0.8350 c3         1 RO4       0.036700
     16 C14          0.7330     0.0030     4.4390 c3         1 RO4       0.055700
     17 C9          -0.6800    -0.2870    -3.9750 c3         1 RO4      -0.150400
     18 C31         -0.2250     0.1310     8.0850 c3         1 RO4       0.166600
     19 C15          1.7640     0.4060    -3.2950 c3         1 RO4      -0.072400
     20 C19         -2.2120    -0.3250     1.0430 c3         1 RO4      -0.086400
     21 C32          0.5490    -0.6050     9.1890 c3         1 RO4      -0.098100
     22 C17          3.8430     0.4930    -4.7670 c3         1 RO4      -0.089600
     23 C18          2.9930    -1.7690    -3.9790 c3         1 RO4      -0.089600
     24 C21         -4.6210    -0.4940     0.2120 c3         1 RO4      -0.091100
     25 C22         -3.4790     1.7760     0.2390 c3         1 RO4      -0.091100
     26 C27          2.1250     0.6750     4.4050 c3         1 RO4      -0.104100
     27 HO2          0.2790    -2.1950    -7.7900 ho         1 RO4       0.446000
     28 HN6         -0.4120    -0.2650    -6.5630 hn         1 RO4       0.335500
     29 HN7         -0.7730     0.9830     3.2530 hn         1 RO4       0.334500
     30 HN5          0.1150    -1.2360    -0.5390 hn         1 RO4       0.323500
     31 H10          0.6160    -1.2730    -2.5430 hc         1 RO4       0.079700
     32 H12         -0.7300     1.2690     0.8730 h1         1 RO4       0.084700
     33 H14          0.8760    -1.0830     4.5150 h1         1 RO4       0.102700
     34 H16          1.9820    -0.3980    -5.2930 hc         1 RO4       0.056700
     35 H20         -2.9290     0.0780    -0.9610 hc         1 RO4       0.046700
     36 H91         -1.6610    -0.3450    -3.4880 hc         1 RO4       0.074700
     37 H92         -0.6490     0.6400    -4.5600 hc         1 RO4       0.074700
     38 H311        -1.2640    -0.2240     8.0660 h1         1 RO4       0.050200
     39 H312        -0.2280     1.2090     8.2960 h1         1 RO4       0.050200
     40 H151         1.5610     1.4290    -3.6370 hc         1 RO4       0.054200
     41 H152         2.3980     0.5110    -2.4040 hc         1 RO4       0.054200
     42 H191        -2.2120    -1.4200     0.9660 hc         1 RO4       0.056200
     43 H192        -2.5300    -0.0950     2.0680 hc         1 RO4       0.056200
     44 H321         0.0830    -0.4240    10.1640 hc         1 RO4       0.048367
     45 H322         0.5520    -1.6860     9.0040 hc         1 RO4       0.048367
     46 H323         1.5870    -0.2540     9.2330 hc         1 RO4       0.048367
     47 H171         4.3980     0.0050    -5.5780 hc         1 RO4       0.033867
     48 H172         3.5610     1.4950    -5.1110 hc         1 RO4       0.033867
     49 H173         4.5170     0.6010    -3.9080 hc         1 RO4       0.033867
     50 H181         3.5550    -1.7650    -3.0380 hc         1 RO4       0.033867
     51 H182         2.1130    -2.4100    -3.8550 hc         1 RO4       0.033867
     52 H183         3.6230    -2.2260    -4.7510 hc         1 RO4       0.033867
     53 H211        -5.3560    -0.1150    -0.5090 hc         1 RO4       0.036200
     54 H212        -4.4930    -1.5680     0.0280 hc         1 RO4       0.036200
     55 H213        -5.0320    -0.3650     1.2210 hc         1 RO4       0.036200
     56 H221        -3.8130     2.0110     1.2570 hc         1 RO4       0.036200
     57 H222        -2.5540     2.3290     0.0460 hc         1 RO4       0.036200
     58 H223        -4.2370     2.1460    -0.4620 hc         1 RO4       0.036200
     59 H271         2.0270     1.7660     4.3470 hc         1 RO4       0.053033
     60 H272         2.6950     0.4290     5.3090 hc         1 RO4       0.053033
     61 H273         2.7030     0.3340     3.5390 hc         1 RO4       0.053033
     62 C16          2.5910    -0.3300    -4.3870 c3         1 RO4      -0.062700
     63 C20         -3.2750     0.2520     0.0650 c3         1 RO4      -0.056700
@<TRIPOS>BOND
     1     1    10 2   
     2     2    11 2   
     3     3    12 2   
     4     4    13 2   
     5     5    13 1   
     6     5    18 1   
     7     6     7 1   
     8     6    27 1   
     9     7    10 1   
    10     7    28 1   
    11     8    12 1   
    12     8    16 1   
    13     8    29 1   
    14     9    11 1   
    15     9    15 1   
    16     9    30 1   
    17    10    17 1   
    18    11    14 1   
    19    12    15 1   
    20    13    16 1   
    21    14    17 1   
    22    14    19 1   
    23    14    31 1   
    24    15    20 1   
    25    15    32 1   
    26    16    26 1   
    27    16    33 1   
    28    17    36 1   
    29    17    37 1   
    30    18    21 1   
    31    18    38 1   
    32    18    39 1   
    33    19    40 1   
    34    19    41 1   
    35    19    62 1   
    36    20    42 1   
    37    20    43 1   
    38    20    63 1   
    39    21    44 1   
    40    21    45 1   
    41    21    46 1   
    42    22    47 1   
    43    22    48 1   
    44    22    49 1   
    45    22    62 1   
    46    23    50 1   
    47    23    51 1   
    48    23    52 1   
    49    23    62 1   
    50    24    53 1   
    51    24    54 1   
    52    24    55 1   
    53    24    63 1   
    54    25    56 1   
    55    25    57 1   
    56    25    58 1   
    57    25    63 1   
    58    26    59 1   
    59    26    60 1   
    60    26    61 1   
    61    34    62 1   
    62    35    63 1   
@<TRIPOS>SUBSTRUCTURE
     1 RO4         1 TEMP              0 ****  ****    0 ROOT
