@<TRIPOS>MOLECULE
RO5
   33    34     1     0     0
SMALL
abcg2


@<TRIPOS>ATOM
      1 C5           4.3650     1.0020     2.1910 ca         1 RO5      -0.130000
      2 C6           4.0210    -0.1600     1.5220 ca         1 RO5      -0.025000
      3 C10          4.3110     2.2280     1.5390 ca         1 RO5      -0.049000
      4 C1           0.5590    -1.0830    -0.3610 c          1 RO5       0.686100
      5 O1           0.6520    -0.0550    -0.9820 o          1 RO5      -0.531100
      6 N1          -0.6000    -1.5830     0.1820 ns         1 RO5      -0.485400
      7 C4          -1.8360    -0.9860     0.1120 cc         1 RO5       0.591300
      8 O3           3.9840    -2.6380    -0.1480 o          1 RO5      -0.523500
      9 C15         -3.4510     0.4180    -0.3520 cd         1 RO5       0.355900
     10 C14         -4.1790    -0.4800     0.3500 cc         1 RO5      -0.211900
     11 C12          3.5670     1.1570    -0.4670 ca         1 RO5       0.015000
     12 O2           3.1360    -1.2820    -2.0810 o          1 RO5      -0.523500
     13 BR2         -5.9890    -0.4370     0.7370 br         1 RO5      -0.010100
     14 S16         -3.1750    -1.7760     0.8930 ss         1 RO5      -0.047400
     15 N17         -2.1240     0.1210    -0.4820 nd         1 RO5      -0.656000
     16 N5           1.6420    -1.9020    -0.1120 ns         1 RO5      -0.600300
     17 C11          3.6210    -0.0600     0.1950 ca         1 RO5      -0.294500
     18 C8           3.9140     2.3240     0.2090 ca         1 RO5      -0.093300
     19 C20          3.8970     3.6460    -0.5050 c3         1 RO5      -0.035100
     20 C21          5.1650     3.8680    -1.3270 c3         1 RO5      -0.088100
     21 H5           4.6770     0.9510     3.2250 ha         1 RO5       0.119000
     22 H6           4.0680    -1.1140     2.0300 ha         1 RO5       0.128000
     23 H10          4.5810     3.1290     2.0780 ha         1 RO5       0.116000
     24 H1          -0.5500    -2.4590     0.6800 hn         1 RO5       0.333500
     25 HA           1.5750    -2.7240     0.4770 hn         1 RO5       0.341500
     26 H15         -3.8450     1.3200    -0.7970 h4         1 RO5       0.058100
     27 H12          3.2590     1.2090    -1.5020 ha         1 RO5       0.149000
     28 H201         3.0250     3.6960    -1.1620 hc         1 RO5       0.051700
     29 H202         3.7870     4.4520     0.2230 hc         1 RO5       0.051700
     30 H211         5.1310     4.8300    -1.8370 hc         1 RO5       0.037700
     31 H212         6.0520     3.8550    -0.6930 hc         1 RO5       0.037700
     32 H213         5.2850     3.0920    -2.0840 hc         1 RO5       0.037700
     33 S2           3.1860    -1.5410    -0.6590 sy         1 RO5       1.194300
@<TRIPOS>BOND
     1     1     2 ar  
     2     1     3 ar  
     3     1    21 1   
     4     2    17 ar  
     5     2    22 1   
     6     3    18 ar  
     7     3    23 1   
     8     4     5 2   
     9     4     6 1   
    10     4    16 1   
    11     6     7 1   
    12     6    24 1   
    13     7    14 1   
    14     7    15 2   
    15     8    33 2   
    16     9    10 2   
    17     9    15 1   
    18     9    26 1   
    19    10    13 1   
    20    10    14 1   
    21    11    17 ar  
    22    11    18 ar  
    23    11    27 1   
    24    12    33 2   
    25    16    25 1   
    26    16    33 1   
    27    17    33 1   
    28    18    19 1   
    29    19    20 1   
    30    19    28 1   
    31    19    29 1   
    32    20    30 1   
    33    20    31 1   
    34    20    32 1   
@<TRIPOS>SUBSTRUCTURE
     1 RO5         1 TEMP              0 ****  ****    0 ROOT
