@<TRIPOS>MOLECULE
RO5
   33    34     1     0     0
SMALL
No Charge or Current Charge


@<TRIPOS>ATOM
      1 C5           4.5230     1.0170     2.2200 ca         1 RO5      -0.130000
      2 C6           4.1360    -0.1650     1.5680 ca         1 RO5      -0.025000
      3 C10          4.4470     2.2510     1.5530 ca         1 RO5      -0.049000
      4 C1           0.5260    -1.0520    -0.4070 c          1 RO5       0.686100
      5 O1           0.6200    -0.0180    -1.0430 o          1 RO5      -0.531100
      6 N1          -0.6310    -1.5390     0.1350 ns         1 RO5      -0.485400
      7 C4          -1.8980    -1.0080     0.0970 cc         1 RO5       0.591300
      8 O3           3.8970    -2.7600    -0.0240 o          1 RO5      -0.523500
      9 C15         -3.5450     0.4100    -0.3820 cd         1 RO5       0.355900
     10 C14         -4.2510    -0.5310     0.3290 cc         1 RO5      -0.211900
     11 C12          3.5940     1.1270    -0.4300 ca         1 RO5       0.015000
     12 O2           3.1530    -1.3850    -2.0510 o          1 RO5      -0.523500
     13 Br2         -6.0980    -0.4890     0.7090 br         1 RO5      -0.010100
     14 S16         -3.2340    -1.8260     0.8740 ss         1 RO5      -0.047400
     15 N17         -2.1910     0.1310    -0.5140 nd         1 RO5      -0.656000
     16 N5           1.5750    -1.8630    -0.1470 ns         1 RO5      -0.600300
     17 C11          3.6720    -0.1140     0.2370 ca         1 RO5      -0.294500
     18 C8           3.9800     2.3130     0.2260 ca         1 RO5      -0.093300
     19 C20          3.8960     3.6500    -0.4970 c3         1 RO5      -0.035100
     20 C21          5.1540     3.9350    -1.3390 c3         1 RO5      -0.088100
     21 H5           4.8830     0.9770     3.2450 ha         1 RO5       0.119000
     22 H6           4.1980    -1.1140     2.0990 ha         1 RO5       0.128000
     23 H10          4.7510     3.1600     2.0680 ha         1 RO5       0.116000
     24 H1          -0.5350    -2.4110     0.6310 hn         1 RO5       0.333500
     25 HA           1.4700    -2.6970     0.4020 hn         1 RO5       0.341500
     26 H15         -3.9570     1.3090    -0.8250 h4         1 RO5       0.058100
     27 H12          3.2310     1.1790    -1.4560 ha         1 RO5       0.149000
     28 H201         3.0160     3.6720    -1.1530 hc         1 RO5       0.051700
     29 H202         3.7580     4.4660     0.2230 hc         1 RO5       0.051700
     30 H211         5.0660     4.9030    -1.8450 hc         1 RO5       0.037700
     31 H212         6.0470     3.9580    -0.7030 hc         1 RO5       0.037700
     32 H213         5.2930     3.1590    -2.1020 hc         1 RO5       0.037700
     33 S2           3.1670    -1.6280    -0.6040 sy         1 RO5       1.194300
@<TRIPOS>BOND
     1     1     2 ar  
     2     1     3 ar  
     3     1    21 1   
     4     2    17 ar  
     5     2    22 1   
     6     3    18 ar  
     7     3    23 1   
     8     4     5 2   
     9     4     6 1   
    10     4    16 1   
    11     6     7 1   
    12     6    24 1   
    13     7    14 1   
    14     7    15 2   
    15     8    33 2   
    16     9    10 2   
    17     9    15 1   
    18     9    26 1   
    19    10    13 1   
    20    10    14 1   
    21    11    17 ar  
    22    11    18 ar  
    23    11    27 1   
    24    12    33 2   
    25    16    25 1   
    26    16    33 1   
    27    17    33 1   
    28    18    19 1   
    29    19    20 1   
    30    19    28 1   
    31    19    29 1   
    32    20    30 1   
    33    20    31 1   
    34    20    32 1   
@<TRIPOS>SUBSTRUCTURE
     1 RO5         1 TEMP              0 ****  ****    0 ROOT
