@<TRIPOS>MOLECULE
RO6
   46    49     1     0     0
SMALL
No Charge or Current Charge


@<TRIPOS>ATOM
      1 C1          -2.0410    -0.6830    -0.1260 ca         1 RO6       0.422900
      2 N11         -1.0670    -1.2770     0.5810 nb         1 RO6      -0.308000
      3 C12          0.1810    -0.9910     0.1850 ca         1 RO6       0.311900
      4 N15          1.2170    -1.5680     0.9010 ns         1 RO6      -0.317900
      5 C16          2.5530    -1.2990     0.7480 c          1 RO6       0.630000
      6 O19          3.3830    -1.8700     1.4430 o          1 RO6      -0.551000
      7 N17          2.9070    -0.3450    -0.2490 n          1 RO6      -0.245400
      8 C20          4.2680     0.0900    -0.4490 ca         1 RO6      -0.041000
      9 C21          4.9280    -0.2700    -1.6440 ca         1 RO6      -0.085000
     10 C22          6.3000    -0.0140    -1.8140 ca         1 RO6      -0.107000
     11 C23          7.0420     0.5660    -0.7740 ca         1 RO6      -0.095000
     12 C24          6.4120     0.8770     0.4410 ca         1 RO6      -0.100000
     13 C25          5.0410     0.6190     0.6170 ca         1 RO6       0.122000
     14 Cl26         4.2960     1.0940     2.1460 cl         1 RO6      -0.188000
     15 C18          1.9180     0.1040    -1.2690 c6         1 RO6       0.196300
     16 C14          0.4700    -0.1440    -0.8750 ca         1 RO6      -0.324300
     17 N10         -1.8870     0.1510    -1.1760 nb         1 RO6      -0.267000
     18 C13         -0.6210     0.4220    -1.5520 ca         1 RO6       0.187900
     19 N2          -3.3270    -0.9910     0.2890 nu         1 RO6      -0.919100
     20 C3          -4.5720    -0.3810    -0.2080 c6         1 RO6       0.245500
     21 C4          -4.7710     1.0200     0.4290 c6         1 RO6      -0.090400
     22 C5          -6.1190     1.6510    -0.0090 c6         1 RO6      -0.090400
     23 C6          -7.3130     0.7230     0.3290 c6         1 RO6       0.169300
     24 O9          -8.5270     1.3050    -0.1490 oh         1 RO6      -0.657000
     25 C7          -7.1130    -0.6800    -0.3020 c6         1 RO6      -0.090400
     26 C8          -5.7650    -1.3080     0.1390 c6         1 RO6      -0.090400
     27 HN15         0.9590    -2.2340     1.6160 hn         1 RO6       0.184000
     28 H21          4.3820    -0.7580    -2.4480 ha         1 RO6       0.128000
     29 H22          6.7900    -0.2810    -2.7480 ha         1 RO6       0.122000
     30 H23          8.1040     0.7630    -0.9050 ha         1 RO6       0.120000
     31 H24          6.9860     1.3200     1.2510 ha         1 RO6       0.132000
     32 H18          2.0620     1.1790    -1.4510 h1         1 RO6       0.053200
     33 H18A         2.1160    -0.4180    -2.2150 h1         1 RO6       0.053200
     34 H13         -0.4870     1.0910    -2.4010 h4         1 RO6       0.021100
     35 HN2         -3.3780    -1.6220     1.0880 hn         1 RO6       0.504000
     36 H3          -4.5370    -0.2750    -1.3050 h1         1 RO6       0.081700
     37 H4          -4.7430     0.9410     1.5250 hc         1 RO6       0.049450
     38 H4A         -3.9460     1.6860     0.1430 hc         1 RO6       0.049450
     39 H5          -6.2500     2.6220     0.4870 hc         1 RO6       0.054200
     40 H5A         -6.0960     1.8520    -1.0890 hc         1 RO6       0.054200
     41 H6          -7.3630     0.6080     1.4220 h1         1 RO6       0.026700
     42 HO9         -9.2590     0.7310     0.1680 ho         1 RO6       0.442000
     43 H7          -7.9400    -1.3430    -0.0120 hc         1 RO6       0.054200
     44 H7A         -7.1420    -0.6040    -1.3980 hc         1 RO6       0.054200
     45 H8          -5.6360    -2.2820    -0.3530 hc         1 RO6       0.049450
     46 H8A         -5.7910    -1.5020     1.2200 hc         1 RO6       0.049450
@<TRIPOS>BOND
     1     1     2 ar  
     2     1    17 ar  
     3     1    19 1   
     4     2     3 ar  
     5     3     4 1   
     6     3    16 ar  
     7     4     5 1   
     8     4    27 1   
     9     5     6 2   
    10     5     7 1   
    11     7     8 1   
    12     7    15 1   
    13     8     9 ar  
    14     8    13 ar  
    15     9    10 ar  
    16     9    28 1   
    17    10    11 ar  
    18    10    29 1   
    19    11    12 ar  
    20    11    30 1   
    21    12    13 ar  
    22    12    31 1   
    23    13    14 1   
    24    15    16 1   
    25    15    32 1   
    26    15    33 1   
    27    16    18 ar  
    28    17    18 ar  
    29    18    34 1   
    30    19    20 1   
    31    19    35 1   
    32    20    21 1   
    33    20    26 1   
    34    20    36 1   
    35    21    22 1   
    36    21    37 1   
    37    21    38 1   
    38    22    23 1   
    39    22    39 1   
    40    22    40 1   
    41    23    24 1   
    42    23    25 1   
    43    23    41 1   
    44    24    42 1   
    45    25    26 1   
    46    25    43 1   
    47    25    44 1   
    48    26    45 1   
    49    26    46 1   
@<TRIPOS>SUBSTRUCTURE
     1 RO6         1 TEMP              0 ****  ****    0 ROOT
