@<TRIPOS>MOLECULE
RO6
   46    49     1     0     0
SMALL
abcg2


@<TRIPOS>ATOM
      1 C1          -2.0030    -0.4370     0.1990 ca         1 RO6       0.422900
      2 N11         -1.0190    -1.0100     0.9110 nb         1 RO6      -0.308000
      3 C12          0.2070    -0.6310     0.6230 ca         1 RO6       0.311900
      4 N15          1.2360    -1.2140     1.3160 ns         1 RO6      -0.317900
      5 C16          2.5550    -1.1720     0.9160 c          1 RO6       0.630000
      6 O19          3.3910    -1.8880     1.4330 o          1 RO6      -0.551000
      7 N17          2.8380    -0.3110    -0.1000 n          1 RO6      -0.245400
      8 C20          4.1910    -0.1910    -0.4960 ca         1 RO6      -0.041000
      9 C21          4.6260    -0.8030    -1.6630 ca         1 RO6      -0.085000
     10 C22          5.9390    -0.6600    -2.0880 ca         1 RO6      -0.107000
     11 C23          6.8270     0.0990    -1.3400 ca         1 RO6      -0.095000
     12 C24          6.4080     0.7190    -0.1720 ca         1 RO6      -0.100000
     13 C25          5.0940     0.5710     0.2410 ca         1 RO6       0.122000
     14 CL26         4.5650     1.3420     1.6950 cl         1 RO6      -0.188000
     15 C18          1.9290     0.7410    -0.5520 c6         1 RO6       0.196300
     16 C14          0.5130     0.3160    -0.3540 ca         1 RO6      -0.324300
     17 N10         -1.8290     0.4620    -0.7730 nb         1 RO6      -0.267000
     18 C13         -0.5760     0.8160    -1.0310 ca         1 RO6       0.187900
     19 N2          -3.2520    -0.8350     0.4890 nu         1 RO6      -0.919100
     20 C3          -4.4540    -0.3110    -0.1210 c6         1 RO6       0.245500
     21 C4          -4.9060     1.0030     0.5190 c6         1 RO6      -0.090400
     22 C5          -6.1980     1.5130    -0.1110 c6         1 RO6      -0.090400
     23 C6          -7.2990     0.4690    -0.0180 c6         1 RO6       0.169300
     24 O9          -8.4580     0.9960    -0.6310 oh         1 RO6      -0.657000
     25 C7          -6.8510    -0.8380    -0.6660 c6         1 RO6      -0.090400
     26 C8          -5.5610    -1.3570    -0.0420 c6         1 RO6      -0.090400
     27 HN15         1.0030    -1.9130     2.0070 hn         1 RO6       0.184000
     28 H21          3.9240    -1.3960    -2.2340 ha         1 RO6       0.128000
     29 H22          6.2660    -1.1430    -2.9990 ha         1 RO6       0.122000
     30 H23          7.8530     0.2140    -1.6630 ha         1 RO6       0.120000
     31 H24          7.0970     1.3130     0.4120 ha         1 RO6       0.132000
     32 H18          2.1440     1.6720    -0.0150 h1         1 RO6       0.053200
     33 H18A         2.1260     0.9300    -1.6080 h1         1 RO6       0.053200
     34 H13         -0.4360     1.5480    -1.8210 h4         1 RO6       0.021100
     35 HN2         -3.3490    -1.4690     1.2670 hn         1 RO6       0.504000
     36 H3          -4.2360    -0.1220    -1.1760 h1         1 RO6       0.081700
     37 H4          -5.0550     0.8410     1.5920 hc         1 RO6       0.049450
     38 H4A         -4.1170     1.7510     0.4180 hc         1 RO6       0.049450
     39 H5          -6.5130     2.4360     0.3830 hc         1 RO6       0.054200
     40 H5A         -6.0240     1.7580    -1.1650 hc         1 RO6       0.054200
     41 H6          -7.4890     0.2690     1.0480 h1         1 RO6       0.026700
     42 HO9         -9.1670     0.3510    -0.5360 ho         1 RO6       0.442000
     43 H7          -7.6360    -1.5930    -0.5700 hc         1 RO6       0.054200
     44 H7A         -6.7010    -0.6700    -1.7390 hc         1 RO6       0.054200
     45 H8          -5.2420    -2.2730    -0.5450 hc         1 RO6       0.049450
     46 H8A         -5.7390    -1.6190     1.0070 hc         1 RO6       0.049450
@<TRIPOS>BOND
     1     1     2 ar  
     2     1    17 ar  
     3     1    19 1   
     4     2     3 ar  
     5     3     4 1   
     6     3    16 ar  
     7     4     5 1   
     8     4    27 1   
     9     5     6 2   
    10     5     7 1   
    11     7     8 1   
    12     7    15 1   
    13     8     9 ar  
    14     8    13 ar  
    15     9    10 ar  
    16     9    28 1   
    17    10    11 ar  
    18    10    29 1   
    19    11    12 ar  
    20    11    30 1   
    21    12    13 ar  
    22    12    31 1   
    23    13    14 1   
    24    15    16 1   
    25    15    32 1   
    26    15    33 1   
    27    16    18 ar  
    28    17    18 ar  
    29    18    34 1   
    30    19    20 1   
    31    19    35 1   
    32    20    21 1   
    33    20    26 1   
    34    20    36 1   
    35    21    22 1   
    36    21    37 1   
    37    21    38 1   
    38    22    23 1   
    39    22    39 1   
    40    22    40 1   
    41    23    24 1   
    42    23    25 1   
    43    23    41 1   
    44    24    42 1   
    45    25    26 1   
    46    25    43 1   
    47    25    44 1   
    48    26    45 1   
    49    26    46 1   
@<TRIPOS>SUBSTRUCTURE
     1 RO6         1 TEMP              0 ****  ****    0 ROOT
