@<TRIPOS>MOLECULE
RO8
   27    28     1     0     0
SMALL
No Charge or Current Charge


@<TRIPOS>ATOM
      1 Cl          -6.1520    54.4170    56.0630 cl         1 RO8      -0.197000
      2 S1          -3.5680    56.8290    60.3740 ss         1 RO8       0.047200
      3 C2          -1.8300    56.7470    60.6100 cc         1 RO8       0.675100
      4 N3          -1.2920    57.9310    61.0310 na         1 RO8      -0.720200
      5 C4          -2.2240    58.9770    61.1410 cc         1 RO8       0.021000
      6 C5          -3.4820    58.5200    60.8120 cd         1 RO8      -0.116700
      7 Br6         -5.0720    59.5330    60.8080 br         1 RO8       0.006300
      8 N7          -1.0990    55.6920    60.5040 nf         1 RO8      -0.770100
      9 N9          -2.0260    53.6210    60.5460 ns         1 RO8      -0.575300
     10 C10         -1.6560    54.6520    59.7830 c          1 RO8       0.773500
     11 O11         -1.7860    54.7090    58.5760 o          1 RO8      -0.616100
     12 O12         -2.3330    51.7130    58.9350 o          1 RO8      -0.532500
     13 O13         -3.2400    51.5950    61.3280 o          1 RO8      -0.532500
     14 C14         -4.5200    53.1160    59.5470 ca         1 RO8      -0.279500
     15 C15         -4.7230    53.4080    58.1800 ca         1 RO8       0.011000
     16 C16         -5.5070    53.4730    60.4910 ca         1 RO8      -0.020000
     17 C17         -5.9040    54.0480    57.7650 ca         1 RO8       0.102000
     18 C18         -6.6860    54.1120    60.0690 ca         1 RO8      -0.120000
     19 C19         -6.8850    54.3990    58.7070 ca         1 RO8      -0.051000
     20 HN3         -0.2990    58.0010    61.2300 hn         1 RO8       0.534000
     21 H4          -1.9360    59.9830    61.4500 h4         1 RO8       0.245000
     22 HN9         -1.9020    53.6770    61.5390 hn         1 RO8       0.355500
     23 H15         -3.9700    53.1550    57.4360 ha         1 RO8       0.160000
     24 H16         -5.3640    53.2650    61.5510 ha         1 RO8       0.123000
     25 H18         -7.4450    54.3870    60.7980 ha         1 RO8       0.122000
     26 H19         -7.7970    54.8940    58.3820 ha         1 RO8       0.132000
     27 S8          -2.9850    52.3410    60.0900 sy         1 RO8       1.224300
@<TRIPOS>BOND
     1     1    17 1   
     2     2     3 1   
     3     2     6 1   
     4     3     4 1   
     5     3     8 2   
     6     4     5 1   
     7     4    20 1   
     8     5     6 2   
     9     5    21 1   
    10     6     7 1   
    11     8    10 1   
    12     9    10 1   
    13     9    22 1   
    14     9    27 1   
    15    10    11 2   
    16    12    27 2   
    17    13    27 2   
    18    14    15 ar  
    19    14    16 ar  
    20    14    27 1   
    21    15    17 ar  
    22    15    23 1   
    23    16    18 ar  
    24    16    24 1   
    25    17    19 ar  
    26    18    19 ar  
    27    18    25 1   
    28    19    26 1   
@<TRIPOS>SUBSTRUCTURE
     1 RO8         1 TEMP              0 ****  ****    0 ROOT
