@<TRIPOS>MOLECULE
RO8
   27    28     1     0     0
SMALL
abcg2


@<TRIPOS>ATOM
      1 CL          -7.0420    53.0520    56.1960 cl         1 RO8      -0.197000
      2 S1          -2.4280    58.0890    59.3970 ss         1 RO8       0.047200
      3 C2          -1.9440    57.2600    60.8730 cc         1 RO8       0.675100
      4 N3          -1.5300    58.1720    61.7760 na         1 RO8      -0.720200
      5 C4          -1.5700    59.4950    61.3830 cc         1 RO8       0.021000
      6 C5          -2.0290    59.6320    60.1290 cd         1 RO8      -0.116700
      7 BR6         -2.2530    61.2360    59.1830 br         1 RO8       0.006300
      8 N7          -1.9530    55.9770    61.1360 nf         1 RO8      -0.770100
      9 N9          -2.3570    53.8090    60.5570 ns         1 RO8      -0.575300
     10 C10         -2.3890    55.1460    60.1550 c          1 RO8       0.773500
     11 O11         -2.7830    55.4610    59.0330 o          1 RO8      -0.616100
     12 O12         -2.2110    52.5010    58.3890 o          1 RO8      -0.532500
     13 O13         -2.7920    51.4070    60.5430 o          1 RO8      -0.532500
     14 C14         -4.6070    52.8860    59.3490 ca         1 RO8      -0.279500
     15 C15         -5.0730    52.8560    58.0430 ca         1 RO8       0.011000
     16 C16         -5.4480    53.1450    60.4270 ca         1 RO8      -0.020000
     17 C17         -6.4250    53.0890    57.8290 ca         1 RO8       0.102000
     18 C18         -6.7920    53.3840    60.1810 ca         1 RO8      -0.120000
     19 C19         -7.2890    53.3550    58.8820 ca         1 RO8      -0.051000
     20 HN3         -1.2120    57.8810    62.6910 hn         1 RO8       0.534000
     21 H4          -1.2520    60.2650    62.0660 h4         1 RO8       0.245000
     22 HN9         -2.1480    53.5990    61.5250 hn         1 RO8       0.355500
     23 H15         -4.4020    52.6600    57.2200 ha         1 RO8       0.160000
     24 H16         -5.0600    53.1690    61.4370 ha         1 RO8       0.123000
     25 H18         -7.4620    53.5940    61.0040 ha         1 RO8       0.122000
     26 H19         -8.3370    53.5390    58.6890 ha         1 RO8       0.132000
     27 S8          -2.8970    52.5360    59.6520 sy         1 RO8       1.224300
@<TRIPOS>BOND
     1     1    17 1   
     2     2     3 1   
     3     2     6 1   
     4     3     4 1   
     5     3     8 2   
     6     4     5 1   
     7     4    20 1   
     8     5     6 2   
     9     5    21 1   
    10     6     7 1   
    11     8    10 1   
    12     9    10 1   
    13     9    22 1   
    14     9    27 1   
    15    10    11 2   
    16    12    27 2   
    17    13    27 2   
    18    14    15 ar  
    19    14    16 ar  
    20    14    27 1   
    21    15    17 ar  
    22    15    23 1   
    23    16    18 ar  
    24    16    24 1   
    25    17    19 ar  
    26    18    19 ar  
    27    18    25 1   
    28    19    26 1   
@<TRIPOS>SUBSTRUCTURE
     1 RO8         1 TEMP              0 ****  ****    0 ROOT
