@<TRIPOS>MOLECULE
RO9
   43    46     1     0     0
SMALL
No Charge or Current Charge


@<TRIPOS>ATOM
      1 C5          -1.5160     1.4160     0.1250 ca         1 RO9       0.633900
      2 C6          -1.0790     2.7410     0.2010 ca         1 RO9      -0.241000
      3 C10          3.0040     3.5470    -0.3870 ca         1 RO9      -0.135000
      4 C15          2.5840    -0.8680     0.4170 ca         1 RO9      -0.129000
      5 C14          3.3590    -2.0300     0.2670 ca         1 RO9       0.134100
      6 C12          0.7550     4.3430     0.0690 ca         1 RO9      -0.124000
      7 N17         -2.8490     1.1230     0.2770 nu         1 RO9      -0.897800
      8 C11          2.1190     4.6060    -0.1320 ca         1 RO9      -0.080000
      9 C8           1.1620     1.9450    -0.2120 ca         1 RO9      -0.125000
     10 C21         -4.3140    -2.1040     0.1460 cc         1 RO9      -0.129300
     11 C23         -4.4870    -3.5920     0.0200 c3         1 RO9      -0.030800
     12 C22         -3.1900    -1.3310     0.0770 cd         1 RO9      -0.224000
     13 N20         -5.3340    -1.1770     0.3720 na         1 RO9      -0.005200
     14 N19         -4.8860     0.1390     0.4450 nc         1 RO9      -0.592800
     15 C18         -3.6000     0.0010     0.2630 cd         1 RO9       0.515900
     16 N4          -0.6970     0.3900    -0.0960 nb         1 RO9      -0.721000
     17 C7           0.2810     3.0200     0.0230 ca         1 RO9       0.035000
     18 C9           2.5320     2.2230    -0.4310 ca         1 RO9      -0.063000
     19 C3           0.6250     0.6230    -0.2380 cp         1 RO9       0.474500
     20 C16          1.4620    -0.6110    -0.4140 cp         1 RO9      -0.114500
     21 C29          1.1280    -1.5850    -1.3900 ca         1 RO9      -0.112000
     22 C32          1.8980    -2.7490    -1.5470 ca         1 RO9      -0.082000
     23 C43          3.0140    -2.9740    -0.7240 ca         1 RO9      -0.189000
     24 C25          5.2920    -3.3540     1.0410 c3         1 RO9       0.148900
     25 H1          -1.7890     3.5420     0.3830 ha         1 RO9       0.124000
     26 H2           4.0590     3.7510    -0.5550 ha         1 RO9       0.115000
     27 H3           2.8510    -0.1580     1.1960 ha         1 RO9       0.134000
     28 H4           0.0690     5.1660     0.2560 ha         1 RO9       0.115000
     29 H5          -3.4240     1.9390     0.4370 hn         1 RO9       0.509000
     30 H6           2.4880     5.6290    -0.0990 ha         1 RO9       0.112000
     31 H7          -4.9190    -4.0150     0.9350 hc         1 RO9       0.050367
     32 H8          -5.1520    -3.8400    -0.8160 hc         1 RO9       0.050367
     33 H9          -3.5250    -4.0870    -0.1580 hc         1 RO9       0.050367
     34 H10         -2.1820    -1.6850    -0.0900 ha         1 RO9       0.168000
     35 H11         -6.3240    -1.4030     0.4790 hn         1 RO9       0.369000
     36 H12          3.2390     1.4280    -0.6520 ha         1 RO9       0.122000
     37 H13          0.2650    -1.4280    -2.0340 ha         1 RO9       0.128000
     38 H14          1.6270    -3.4790    -2.3070 ha         1 RO9       0.112000
     39 H15          3.5920    -3.8820    -0.8670 ha         1 RO9       0.116000
     40 H16          4.7220    -4.2740     1.2240 h1         1 RO9       0.040367
     41 H17          5.7710    -3.4260     0.0560 h1         1 RO9       0.040367
     42 H18          6.0830    -3.2880     1.7990 h1         1 RO9       0.040367
     43 O24          4.4360    -2.2000     1.1120 os         1 RO9      -0.342100
@<TRIPOS>BOND
     1     1     2 ar  
     2     1     7 1   
     3     1    16 ar  
     4     2    17 ar  
     5     2    25 1   
     6     3     8 ar  
     7     3    18 ar  
     8     3    26 1   
     9     4     5 ar  
    10     4    20 ar  
    11     4    27 1   
    12     5    23 ar  
    13     5    43 1   
    14     6     8 ar  
    15     6    17 ar  
    16     6    28 1   
    17     7    15 1   
    18     7    29 1   
    19     8    30 1   
    20     9    17 ar  
    21     9    18 ar  
    22     9    19 ar  
    23    10    11 1   
    24    10    12 2   
    25    10    13 1   
    26    11    31 1   
    27    11    32 1   
    28    11    33 1   
    29    12    15 1   
    30    12    34 1   
    31    13    14 1   
    32    13    35 1   
    33    14    15 2   
    34    16    19 ar  
    35    18    36 1   
    36    19    20 1   
    37    20    21 ar  
    38    21    22 ar  
    39    21    37 1   
    40    22    23 ar  
    41    22    38 1   
    42    23    39 1   
    43    24    40 1   
    44    24    41 1   
    45    24    42 1   
    46    24    43 1   
@<TRIPOS>SUBSTRUCTURE
     1 RO9         1 TEMP              0 ****  ****    0 ROOT
