@<TRIPOS>MOLECULE
RO9
   43    46     1     0     0
SMALL
bcc


@<TRIPOS>ATOM
      1 C5          -1.5170     1.4640     0.2010 ca         1 RO9       0.699200
      2 C6          -1.0670     2.7700     0.2610 ca         1 RO9      -0.324300
      3 C10          3.0120     3.4780    -0.4770 ca         1 RO9      -0.153000
      4 C15          2.5360    -0.8250     0.4450 ca         1 RO9      -0.147000
      5 C14          3.2650    -2.0080     0.3080 ca         1 RO9       0.134100
      6 C12          0.8220     4.3420     0.0580 ca         1 RO9      -0.142000
      7 N17         -2.8470     1.1880     0.3570 nu         1 RO9      -0.842600
      8 C11          2.1450     4.5590    -0.1970 ca         1 RO9      -0.098000
      9 C8           1.1740     1.9330    -0.1840 ca         1 RO9      -0.190300
     10 C21         -4.1470    -2.1230     0.0470 cc         1 RO9      -0.078600
     11 C23         -4.3070    -3.5900    -0.1350 c3         1 RO9      -0.030800
     12 C22         -3.0200    -1.3270    -0.0000 cd         1 RO9      -0.307300
     13 N20         -5.1700    -1.3070     0.3340 na         1 RO9      -0.005600
     14 N19         -4.8060    -0.0280     0.4790 nc         1 RO9      -0.592800
     15 C18         -3.4990    -0.0290     0.2780 cd         1 RO9       0.581200
     16 N4          -0.6840     0.4290     0.0060 nb         1 RO9      -0.721000
     17 C7           0.2940     3.0240     0.0570 ca         1 RO9       0.035000
     18 C9           2.5370     2.1970    -0.4710 ca         1 RO9      -0.081000
     19 C3           0.6000     0.6340    -0.1600 cp         1 RO9       0.539800
     20 C16          1.4100    -0.5960    -0.3340 cp         1 RO9      -0.114500
     21 C29          0.9970    -1.5620    -1.2530 ca         1 RO9      -0.130000
     22 C32          1.7270    -2.7280    -1.3900 ca         1 RO9      -0.100000
     23 C43          2.8590    -2.9650    -0.6180 ca         1 RO9      -0.207000
     24 C25          5.1230    -3.3070     1.0070 c3         1 RO9       0.125700
     25 H1          -1.7520     3.5900     0.4400 ha         1 RO9       0.142000
     26 H2           4.0520     3.6700    -0.7020 ha         1 RO9       0.133000
     27 H3           2.8530    -0.0980     1.1820 ha         1 RO9       0.152000
     28 H4           0.1550     5.1730     0.2530 ha         1 RO9       0.133000
     29 H5          -3.4530     1.9770     0.5210 hn         1 RO9       0.453800
     30 H6           2.5350     5.5690    -0.2000 ha         1 RO9       0.130000
     31 H7          -4.1420    -4.1270     0.8000 hc         1 RO9       0.050367
     32 H8          -5.3060    -3.8430    -0.4890 hc         1 RO9       0.050367
     33 H9          -3.5880    -3.9650    -0.8610 hc         1 RO9       0.050367
     34 H10         -2.0130    -1.6360    -0.2050 ha         1 RO9       0.186000
     35 H11         -6.1390    -1.5600     0.4360 hn         1 RO9       0.318700
     36 H12          3.2060     1.3810    -0.7050 ha         1 RO9       0.140000
     37 H13          0.1160    -1.3940    -1.8580 ha         1 RO9       0.146000
     38 H14          1.4160    -3.4760    -2.1080 ha         1 RO9       0.130000
     39 H15          3.4010    -3.8920    -0.7470 ha         1 RO9       0.134000
     40 H16          4.5530    -4.2070     1.2520 h1         1 RO9       0.040367
     41 H17          5.5510    -3.4210     0.0080 h1         1 RO9       0.040367
     42 H18          5.9330    -3.2000     1.7240 h1         1 RO9       0.040367
     43 O24          4.3360    -2.1360     1.1140 os         1 RO9      -0.318900
@<TRIPOS>BOND
     1     1     2 ar  
     2     1     7 1   
     3     1    16 ar  
     4     2    17 ar  
     5     2    25 1   
     6     3     8 ar  
     7     3    18 ar  
     8     3    26 1   
     9     4     5 ar  
    10     4    20 ar  
    11     4    27 1   
    12     5    23 ar  
    13     5    43 1   
    14     6     8 ar  
    15     6    17 ar  
    16     6    28 1   
    17     7    15 1   
    18     7    29 1   
    19     8    30 1   
    20     9    17 ar  
    21     9    18 ar  
    22     9    19 ar  
    23    10    11 1   
    24    10    12 2   
    25    10    13 1   
    26    11    31 1   
    27    11    32 1   
    28    11    33 1   
    29    12    15 1   
    30    12    34 1   
    31    13    14 1   
    32    13    35 1   
    33    14    15 2   
    34    16    19 ar  
    35    18    36 1   
    36    19    20 1   
    37    20    21 ar  
    38    21    22 ar  
    39    21    37 1   
    40    22    23 ar  
    41    22    38 1   
    42    23    39 1   
    43    24    40 1   
    44    24    41 1   
    45    24    42 1   
    46    24    43 1   
@<TRIPOS>SUBSTRUCTURE
     1 RO9         1 TEMP              0 ****  ****    0 ROOT
