@<TRIPOS>MOLECULE
ROA
   41    42     1     0     0
SMALL
bcc


@<TRIPOS>ATOM
      1 CAU         -4.3880    -0.8300     0.2540 ca         1 ROA      -0.177000
      2 CAV         -4.5340    -2.2060     0.3060 ca         1 ROA       0.036100
      3 OAY         -5.2700    -2.8530     1.2410 oh         1 ROA      -0.533100
      4 CAW         -3.9010    -3.0130    -0.6480 ca         1 ROA       0.094100
      5 OAZ         -4.0220    -4.3600    -0.6340 oh         1 ROA      -0.511100
      6 CAX         -3.1350    -2.4110    -1.6330 ca         1 ROA      -0.145000
      7 CAT         -2.9920    -1.0280    -1.6750 ca         1 ROA      -0.118000
      8 CAS         -3.6180    -0.2200    -0.7360 ca         1 ROA      -0.045300
      9 CAO         -3.4510     1.2730    -0.7470 c3         1 ROA      -0.027100
     10 CAN         -2.3710     1.7590     0.2160 c3         1 ROA       0.008100
     11 CAP         -2.2720     3.3030     0.1970 c          1 ROA       0.927600
     12 OAR         -1.2820     3.8120    -0.3500 o          1 ROA      -0.816800
     13 OAQ         -3.2440     3.8800     0.7220 o          1 ROA      -0.816800
     14 OAM         -1.1540     1.1450    -0.2010 os         1 ROA      -0.405900
     15 CAK         -0.1080     1.2250     0.6070 c          1 ROA       0.654300
     16 OAL         -0.1450     1.7100     1.7170 o          1 ROA      -0.547000
     17 CAJ          1.0790     0.6130    -0.0090 ce         1 ROA      -0.164200
     18 CAI          2.2490     0.5890     0.6410 cf         1 ROA      -0.090200
     19 CAC          3.4990     0.0080     0.1740 ca         1 ROA      -0.039800
     20 CAD          4.6460     0.1840     0.9570 ca         1 ROA      -0.165000
     21 CAE          5.8660    -0.3380     0.5700 ca         1 ROA       0.035100
     22 OAG          7.0100    -0.1970     1.2750 oh         1 ROA      -0.528100
     23 CAF          5.9640    -1.0660    -0.6240 ca         1 ROA       0.113100
     24 OAH          7.1290    -1.5930    -1.0380 oh         1 ROA      -0.502100
     25 CAB          4.8270    -1.2500    -1.4010 ca         1 ROA      -0.145000
     26 CAA          3.6090    -0.7200    -1.0110 ca         1 ROA      -0.108000
     27 HAU         -4.8880    -0.2160     0.9980 ha         1 ROA       0.136000
     28 HOAY        -5.6890    -2.2280     1.8420 ho         1 ROA       0.430000
     29 HOAZ        -4.5950    -4.6360     0.0900 ho         1 ROA       0.431000
     30 HAX         -2.6470    -3.0330    -2.3730 ha         1 ROA       0.134000
     31 HAT         -2.3890    -0.5820    -2.4550 ha         1 ROA       0.140000
     32 HAO         -3.2170     1.6180    -1.7580 hc         1 ROA       0.064700
     33 HAOA        -4.3840     1.7590    -0.4550 hc         1 ROA       0.064700
     34 HAN         -2.6220     1.4280     1.2290 h1         1 ROA       0.045700
     35 HAJ          0.9610     0.1880    -0.9990 ha         1 ROA       0.137000
     36 HAI          2.2910     1.0530     1.6230 ha         1 ROA       0.142000
     37 HAD          4.5810     0.7460     1.8830 ha         1 ROA       0.135000
     38 HOAG         6.8600     0.3080     2.0810 ho         1 ROA       0.433000
     39 HOAH         7.8370    -1.3920    -0.4130 ho         1 ROA       0.438000
     40 HAB          4.9050    -1.8180    -2.3200 ha         1 ROA       0.143000
     41 HAA          2.7440    -0.8870    -1.6380 ha         1 ROA       0.143000
@<TRIPOS>BOND
     1     1     2 ar  
     2     1     8 ar  
     3     1    27 1   
     4     2     3 1   
     5     2     4 ar  
     6     3    28 1   
     7     4     5 1   
     8     4     6 ar  
     9     5    29 1   
    10     6     7 ar  
    11     6    30 1   
    12     7     8 ar  
    13     7    31 1   
    14     8     9 1   
    15     9    10 1   
    16     9    32 1   
    17     9    33 1   
    18    10    11 1   
    19    10    14 1   
    20    10    34 1   
    21    11    12 1   
    22    11    13 1   
    23    14    15 1   
    24    15    16 2   
    25    15    17 1   
    26    17    18 2   
    27    17    35 1   
    28    18    19 1   
    29    18    36 1   
    30    19    20 ar  
    31    19    26 ar  
    32    20    21 ar  
    33    20    37 1   
    34    21    22 1   
    35    21    23 ar  
    36    22    38 1   
    37    23    24 1   
    38    23    25 ar  
    39    24    39 1   
    40    25    26 ar  
    41    25    40 1   
    42    26    41 1   
@<TRIPOS>SUBSTRUCTURE
     1 ROA         1 TEMP              0 ****  ****    0 ROOT
