@<TRIPOS>MOLECULE
ROA
   41    42     1     0     0
SMALL
No Charge or Current Charge


@<TRIPOS>ATOM
      1 CAU         -4.3790    -0.8680     0.2910 ca         1 ROA      -0.159000
      2 CAV         -4.5000    -2.2670     0.3540 ca         1 ROA       0.036100
      3 OAY         -5.2070    -2.8520     1.3720 oh         1 ROA      -0.572100
      4 CAW         -3.8940    -3.0690    -0.6340 ca         1 ROA       0.094100
      5 OAZ         -4.0170    -4.4250    -0.5640 oh         1 ROA      -0.550100
      6 CAX         -3.1690    -2.4750    -1.6790 ca         1 ROA      -0.127000
      7 CAT         -3.0490    -1.0750    -1.7390 ca         1 ROA      -0.100000
      8 CAS         -3.6530    -0.2650    -0.7560 ca         1 ROA      -0.045300
      9 CAO         -3.5210     1.2530    -0.8200 c3         1 ROA      -0.027100
     10 CAN         -2.4520     1.8050     0.1530 c3         1 ROA       0.031300
     11 CAP         -2.4470     3.3740     0.1510 c          1 ROA       0.717000
     12 OAR         -1.5190     3.9750    -0.3790 o          1 ROA      -0.711500
     13 OAQ         -3.3690     3.9470     0.7180 o          1 ROA      -0.711500
     14 OAM         -1.1780     1.2190    -0.2390 os         1 ROA      -0.429100
     15 CAK         -0.1130     1.3290     0.6180 c          1 ROA       0.605300
     16 OAL         -0.1640     1.8280     1.7350 o          1 ROA      -0.498000
     17 CAJ          1.1050     0.7000     0.0360 ce         1 ROA      -0.214200
     18 CAI          2.3190     0.6240     0.6600 cf         1 ROA      -0.140200
     19 CAC          3.5840     0.0290     0.1850 ca         1 ROA      -0.039800
     20 CAD          4.7230     0.0740     1.0170 ca         1 ROA      -0.147000
     21 CAE          5.9410    -0.4840     0.5910 ca         1 ROA       0.035100
     22 OAG          7.0430    -0.4370     1.4050 oh         1 ROA      -0.567100
     23 CAF          6.0280    -1.0950    -0.6750 ca         1 ROA       0.113100
     24 OAH          7.2130    -1.6340    -1.0800 oh         1 ROA      -0.541100
     25 CAB          4.9030    -1.1460    -1.5100 ca         1 ROA      -0.127000
     26 CAA          3.6850    -0.5860    -1.0830 ca         1 ROA      -0.090000
     27 HAU         -4.8440    -0.2440     1.0510 ha         1 ROA       0.118000
     28 HOAY        -5.5570    -2.1470     1.9610 ho         1 ROA       0.469000
     29 HOAZ        -4.5580    -4.6020     0.2390 ho         1 ROA       0.470000
     30 HAX         -2.7000    -3.0950    -2.4390 ha         1 ROA       0.116000
     31 HAT         -2.4820    -0.6200    -2.5480 ha         1 ROA       0.122000
     32 HAO         -3.2790     1.5780    -1.8390 hc         1 ROA       0.064700
     33 HAOA        -4.4880     1.7120    -0.5810 hc         1 ROA       0.064700
     34 HAN         -2.7200     1.4830     1.1670 h1         1 ROA       0.045700
     35 HAJ          0.9710     0.2850    -0.9580 ha         1 ROA       0.187000
     36 HAI          2.3850     1.0620     1.6590 ha         1 ROA       0.192000
     37 HAD          4.6570     0.5450     1.9950 ha         1 ROA       0.117000
     38 HOAG         6.8030     0.0210     2.2420 ho         1 ROA       0.472000
     39 HOAH         7.8420    -1.4790    -0.3390 ho         1 ROA       0.477000
     40 HAB          4.9720    -1.6170    -2.4870 ha         1 ROA       0.125000
     41 HAA          2.8260    -0.6370    -1.7460 ha         1 ROA       0.125000
@<TRIPOS>BOND
     1     1     2 ar  
     2     1     8 ar  
     3     1    27 1   
     4     2     3 1   
     5     2     4 ar  
     6     3    28 1   
     7     4     5 1   
     8     4     6 ar  
     9     5    29 1   
    10     6     7 ar  
    11     6    30 1   
    12     7     8 ar  
    13     7    31 1   
    14     8     9 1   
    15     9    10 1   
    16     9    32 1   
    17     9    33 1   
    18    10    11 1   
    19    10    14 1   
    20    10    34 1   
    21    11    12 1   
    22    11    13 1   
    23    14    15 1   
    24    15    16 2   
    25    15    17 1   
    26    17    18 2   
    27    17    35 1   
    28    18    19 1   
    29    18    36 1   
    30    19    20 ar  
    31    19    26 ar  
    32    20    21 ar  
    33    20    37 1   
    34    21    22 1   
    35    21    23 ar  
    36    22    38 1   
    37    23    24 1   
    38    23    25 ar  
    39    24    39 1   
    40    25    26 ar  
    41    25    40 1   
    42    26    41 1   
@<TRIPOS>SUBSTRUCTURE
     1 ROA         1 TEMP              0 ****  ****    0 ROOT
