@<TRIPOS>MOLECULE
ROC
   99   103     1     0     0
SMALL
abcg2


@<TRIPOS>ATOM
      1 C            3.8050    -1.4440    -0.0250 c          1 ROC       0.513600
      2 O            3.5300    -2.4290    -0.6920 o          1 ROC      -0.594100
      3 N1           5.2430     0.4290     0.4260 nb         1 ROC      -0.667000
      4 C2           5.0410    -0.6330    -0.3060 ca         1 ROC       0.320500
      5 C3           5.9040    -1.0400    -1.3450 ca         1 ROC      -0.118000
      6 C4           7.0020    -0.2750    -1.6110 ca         1 ROC      -0.073000
      7 C5           8.3490     1.7400    -1.0720 ca         1 ROC      -0.094000
      8 C6           8.5240     2.8550    -0.2990 ca         1 ROC      -0.101000
      9 C7           7.6030     3.1690     0.7240 ca         1 ROC      -0.104000
     10 C8           6.5230     2.3630     0.9610 ca         1 ROC      -0.080000
     11 C4A          7.2420     0.8900    -0.8520 ca         1 ROC      -0.072000
     12 C8A          6.3190     1.2040     0.1770 ca         1 ROC       0.268000
     13 N            3.0800    -0.9850     1.0040 ns         1 ROC      -0.484900
     14 CA           1.8200    -1.5450     1.4290 c3         1 ROC       0.047700
     15 C1           0.7100    -0.5920     0.9830 c          1 ROC       0.587100
     16 O1           0.5140     0.4590     1.5750 o          1 ROC      -0.617100
     17 CB           1.8030    -1.7290     2.9390 c3         1 ROC      -0.169400
     18 CG           2.8570    -2.7290     3.3740 c          1 ROC       0.606100
     19 OD1          3.0220    -3.7850     2.7810 o          1 ROC      -0.599100
     20 ND2          3.5620    -2.3770     4.4560 nt         1 ROC      -0.608000
     21 C9          -2.3270    -0.8700    -0.7180 c3         1 ROC       0.148300
     22 O2          -2.2940    -2.1630    -1.2860 oh         1 ROC      -0.644000
     23 CA1         -0.9570    -0.1820    -0.7780 c3         1 ROC       0.078700
     24 N2           0.0330    -0.9900    -0.1010 ns         1 ROC      -0.477900
     25 CB1         -0.4900     0.1450    -2.2030 c3         1 ROC      -0.048100
     26 CG1          0.9090     0.6980    -2.2410 ca         1 ROC      -0.085300
     27 CD1          1.9270     0.0050    -2.8890 ca         1 ROC      -0.099500
     28 CD2          1.2200     1.9070    -1.6210 ca         1 ROC      -0.099500
     29 CE1          3.2210     0.5080    -2.9300 ca         1 ROC      -0.108500
     30 CE2          2.5140     2.4070    -1.6480 ca         1 ROC      -0.108500
     31 CZ           3.5190     1.7090    -2.3060 ca         1 ROC      -0.112000
     32 N11         -4.7550    -0.4340    -0.8890 n3         1 ROC      -0.716600
     33 C21         -5.5190     0.5940    -0.2100 c6         1 ROC       0.116500
     34 CC          -4.7090     1.1450     0.9670 c          1 ROC       0.594100
     35 O3          -4.2440     0.4020     1.8190 o          1 ROC      -0.584100
     36 C31         -6.8280     0.0270     0.3340 c6         1 ROC      -0.068400
     37 C3A         -7.6490    -0.6560    -0.7550 c6         1 ROC      -0.053700
     38 C41         -8.9310    -1.2850    -0.2060 c6         1 ROC      -0.066400
     39 C51         -8.6680    -2.5330     0.6320 c6         1 ROC      -0.074400
     40 C61         -7.8430    -3.5510    -0.1480 c6         1 ROC      -0.073400
     41 C71         -6.5400    -2.9400    -0.6500 c6         1 ROC      -0.069400
     42 C7A         -6.7940    -1.6910    -1.4950 c6         1 ROC      -0.052700
     43 C81         -5.5020    -1.0460    -1.9730 c6         1 ROC       0.185800
     44 N3          -4.5860     2.4800     0.9790 ns         1 ROC      -0.512900
     45 CD          -3.8140     3.2860     1.9320 c3         1 ROC       0.137400
     46 C11         -2.3240     2.9590     1.8130 c3         1 ROC      -0.103100
     47 C22         -4.0460     4.7440     1.5390 c3         1 ROC      -0.103100
     48 C32         -4.3040     3.0700     3.3640 c3         1 ROC      -0.103100
     49 H3           5.6900    -1.9330    -1.9130 ha         1 ROC       0.150000
     50 H4           7.6910    -0.5510    -2.4000 ha         1 ROC       0.123000
     51 H5           9.0540     1.4970    -1.8570 ha         1 ROC       0.118000
     52 H6           9.3720     3.5060    -0.4690 ha         1 ROC       0.117000
     53 H7           7.7560     4.0560     1.3230 ha         1 ROC       0.118000
     54 H8           5.8090     2.5940     1.7400 ha         1 ROC       0.131000
     55 H            3.3920    -0.1210     1.4270 hn         1 ROC       0.347500
     56 HA           1.7060    -2.5180     0.9510 h1         1 ROC       0.108700
     57 HB2          1.9300    -0.7670     3.4400 hc         1 ROC       0.077200
     58 HB3          0.8270    -2.1170     3.2440 hc         1 ROC       0.077200
     59 HD21         3.4320    -1.4910     4.9110 hn         1 ROC       0.313000
     60 HD22         4.2660    -2.9920     4.8310 hn         1 ROC       0.313000
     61 HC          -2.5600    -1.0190     0.3380 h1         1 ROC       0.117700
     62 HO          -2.3040    -2.0840    -2.2450 ho         1 ROC       0.428000
     63 HA1         -1.0360     0.7480    -0.2130 h1         1 ROC       0.086700
     64 H1           0.2730    -1.8750    -0.5200 hn         1 ROC       0.332500
     65 HB21        -0.5320    -0.7510    -2.8280 hc         1 ROC       0.047700
     66 HB31        -1.1840     0.8650    -2.6450 hc         1 ROC       0.047700
     67 HD1          1.7030    -0.9390    -3.3710 ha         1 ROC       0.112500
     68 HD2          0.4450     2.4650    -1.1080 ha         1 ROC       0.112500
     69 HE1          3.9960    -0.0450    -3.4450 ha         1 ROC       0.112500
     70 HE2          2.7400     3.3450    -1.1570 ha         1 ROC       0.112500
     71 HZ           4.5290     2.0990    -2.3280 ha         1 ROC       0.112000
     72 H2          -5.7660     1.4230    -0.9010 h1         1 ROC       0.013700
     73 H31         -6.5970    -0.6710     1.1410 hc         1 ROC       0.059700
     74 H32         -7.4080     0.8420     0.7760 hc         1 ROC       0.059700
     75 H3A         -7.9360     0.1170    -1.4790 hc         1 ROC       0.035700
     76 H41         -9.4860    -0.5450     0.3790 hc         1 ROC       0.037200
     77 H42         -9.5770    -1.5570    -1.0480 hc         1 ROC       0.037200
     78 H51         -8.1390    -2.2660     1.5520 hc         1 ROC       0.040200
     79 H52         -9.6180    -2.9740     0.9450 hc         1 ROC       0.040200
     80 H61         -7.6380    -4.4290     0.4700 hc         1 ROC       0.036700
     81 H62         -8.4280    -3.9060    -1.0050 hc         1 ROC       0.036700
     82 H71         -5.8910    -2.6920     0.1950 hc         1 ROC       0.054200
     83 H72         -5.9870    -3.6690    -1.2500 hc         1 ROC       0.054200
     84 H7A         -7.3450    -2.0050    -2.3900 hc         1 ROC       0.043700
     85 H81         -5.7360    -0.3070    -2.7610 h1         1 ROC       0.029200
     86 H82         -4.8700    -1.8070    -2.4370 h1         1 ROC       0.029200
     87 HN1         -4.9780     2.9750     0.1930 hn         1 ROC       0.304500
     88 H11         -1.9670     3.1520     0.7990 hc         1 ROC       0.044700
     89 H12         -1.7440     3.5840     2.4940 hc         1 ROC       0.044700
     90 H13         -2.1140     1.9180     2.0530 hc         1 ROC       0.044700
     91 H21         -5.1010     5.0140     1.6190 hc         1 ROC       0.044700
     92 H22         -3.4820     5.4070     2.1930 hc         1 ROC       0.044700
     93 H23         -3.7210     4.9340     0.5140 hc         1 ROC       0.044700
     94 H311        -4.1130     2.0570     3.7120 hc         1 ROC       0.044700
     95 H321        -3.7890     3.7580     4.0370 hc         1 ROC       0.044700
     96 H33         -5.3740     3.2650     3.4410 hc         1 ROC       0.044700
     97 CM          -3.4300     0.0010    -1.3080 c3         1 ROC       0.148800
     98 HM1         -3.2500     1.0400    -1.0120 h1         1 ROC       0.033200
     99 HM2         -3.3560     0.0130    -2.4040 h1         1 ROC       0.033200
@<TRIPOS>BOND
     1     1     2 2   
     2     1     4 1   
     3     1    13 1   
     4     3     4 ar  
     5     3    12 ar  
     6     4     5 ar  
     7     5     6 ar  
     8     5    49 1   
     9     6    11 ar  
    10     6    50 1   
    11     7     8 ar  
    12     7    11 ar  
    13     7    51 1   
    14     8     9 ar  
    15     8    52 1   
    16     9    10 ar  
    17     9    53 1   
    18    10    12 ar  
    19    10    54 1   
    20    11    12 ar  
    21    13    14 1   
    22    13    55 1   
    23    14    15 1   
    24    14    17 1   
    25    14    56 1   
    26    15    16 2   
    27    15    24 1   
    28    17    18 1   
    29    17    57 1   
    30    17    58 1   
    31    18    19 2   
    32    18    20 1   
    33    20    59 1   
    34    20    60 1   
    35    21    22 1   
    36    21    23 1   
    37    21    61 1   
    38    21    97 1   
    39    22    62 1   
    40    23    24 1   
    41    23    25 1   
    42    23    63 1   
    43    24    64 1   
    44    25    26 1   
    45    25    65 1   
    46    25    66 1   
    47    26    27 ar  
    48    26    28 ar  
    49    27    29 ar  
    50    27    67 1   
    51    28    30 ar  
    52    28    68 1   
    53    29    31 ar  
    54    29    69 1   
    55    30    31 ar  
    56    30    70 1   
    57    31    71 1   
    58    32    33 1   
    59    32    43 1   
    60    32    97 1   
    61    33    34 1   
    62    33    36 1   
    63    33    72 1   
    64    34    35 2   
    65    34    44 1   
    66    36    37 1   
    67    36    73 1   
    68    36    74 1   
    69    37    38 1   
    70    37    42 1   
    71    37    75 1   
    72    38    39 1   
    73    38    76 1   
    74    38    77 1   
    75    39    40 1   
    76    39    78 1   
    77    39    79 1   
    78    40    41 1   
    79    40    80 1   
    80    40    81 1   
    81    41    42 1   
    82    41    82 1   
    83    41    83 1   
    84    42    43 1   
    85    42    84 1   
    86    43    85 1   
    87    43    86 1   
    88    44    45 1   
    89    44    87 1   
    90    45    46 1   
    91    45    47 1   
    92    45    48 1   
    93    46    88 1   
    94    46    89 1   
    95    46    90 1   
    96    47    91 1   
    97    47    92 1   
    98    47    93 1   
    99    48    94 1   
   100    48    95 1   
   101    48    96 1   
   102    97    98 1   
   103    97    99 1   
@<TRIPOS>SUBSTRUCTURE
     1 ROC         1 TEMP              0 ****  ****    0 ROOT
