@<TRIPOS>MOLECULE
ROC
   99   103     1     0     0
SMALL
No Charge or Current Charge


@<TRIPOS>ATOM
      1 C            4.5340    -0.5650     1.1020 c          1 ROC       0.513600
      2 O            4.7440    -1.7710     1.1940 o          1 ROC      -0.594100
      3 N1           5.3030     1.8190     1.0980 nb         1 ROC      -0.667000
      4 C2           5.6380     0.4970     1.2130 ca         1 ROC       0.320500
      5 C3           6.9730     0.0960     1.4370 ca         1 ROC      -0.118000
      6 C4           7.9820     1.0650     1.5450 ca         1 ROC      -0.073000
      7 C5           8.6140     3.4200     1.5300 ca         1 ROC      -0.094000
      8 C6           8.2570     4.7730     1.4100 ca         1 ROC      -0.101000
      9 C7           6.9160     5.1260     1.1860 ca         1 ROC      -0.104000
     10 C8           5.9330     4.1240     1.0830 ca         1 ROC      -0.080000
     11 C4A          7.6280     2.4190     1.4260 ca         1 ROC      -0.072000
     12 C8A          6.2700     2.7620     1.2010 ca         1 ROC       0.268000
     13 N            3.2570    -0.0770     0.8820 ns         1 ROC      -0.484900
     14 CA           2.0280    -0.8930     0.7420 c3         1 ROC       0.047700
     15 C1           1.0990    -0.2820    -0.3470 c          1 ROC       0.587100
     16 O1           1.2140     0.8660    -0.7590 o          1 ROC      -0.617100
     17 CB           1.2890    -1.0250     2.1020 c3         1 ROC      -0.169400
     18 CG           2.0930    -1.8130     3.1350 c          1 ROC       0.606100
     19 OD1          2.1310    -3.0310     3.1590 o          1 ROC      -0.599100
     20 ND2          2.7460    -1.0880     4.0670 nt         1 ROC      -0.608000
     21 C9          -2.1880    -0.2820    -1.1480 c3         1 ROC       0.148300
     22 O2          -2.8360    -1.3330    -0.4160 oh         1 ROC      -0.644000
     23 CA1         -0.8820    -0.7840    -1.8370 c3         1 ROC       0.078700
     24 N2           0.1220    -1.1330    -0.8210 ns         1 ROC      -0.477900
     25 CB1         -1.0640    -1.9620    -2.8350 c3         1 ROC      -0.048100
     26 CG1          0.2620    -2.4950    -3.3780 ca         1 ROC      -0.085300
     27 CD1          0.6620    -3.8210    -3.1110 ca         1 ROC      -0.099500
     28 CD2          1.1010    -1.6630    -4.1460 ca         1 ROC      -0.099500
     29 CE1          1.8880    -4.3050    -3.6010 ca         1 ROC      -0.108500
     30 CE2          2.3280    -2.1470    -4.6350 ca         1 ROC      -0.108500
     31 CZ           2.7220    -3.4680    -4.3620 ca         1 ROC      -0.112000
     32 N11         -4.6360     0.3040    -1.5200 n3         1 ROC      -0.716600
     33 C21         -4.9920     1.4800    -0.6250 c6         1 ROC       0.116500
     34 CC          -3.8920     1.9660     0.3980 c          1 ROC       0.594100
     35 O3          -2.9530     2.6650     0.0360 o          1 ROC      -0.584100
     36 C31         -6.3480     1.1610     0.0770 c6         1 ROC      -0.068400
     37 C3A         -7.4800     0.9300    -0.9620 c6         1 ROC      -0.053700
     38 C41         -8.8530     0.6190    -0.2990 c6         1 ROC      -0.066400
     39 C51         -8.9010    -0.7900     0.3480 c6         1 ROC      -0.074400
     40 C61         -8.5140    -1.8860    -0.6750 c6         1 ROC      -0.073400
     41 C71         -7.1280    -1.6050    -1.3060 c6         1 ROC      -0.069400
     42 C7A         -7.0780    -0.1920    -1.9640 c6         1 ROC      -0.052700
     43 C81         -5.6790     0.1040    -2.5690 c6         1 ROC       0.185800
     44 N3          -4.0360     1.5420     1.7120 ns         1 ROC      -0.512900
     45 CD          -3.1230     1.7860     2.8360 c3         1 ROC       0.137400
     46 C11         -3.0020     3.3030     3.1250 c3         1 ROC      -0.103100
     47 C22         -3.7360     1.0840     4.0700 c3         1 ROC      -0.103100
     48 C32         -1.7300     1.1710     2.5470 c3         1 ROC      -0.103100
     49 H3           7.2190    -0.9600     1.5260 ha         1 ROC       0.150000
     50 H4           9.0150     0.7680     1.7180 ha         1 ROC       0.123000
     51 H5           9.6540     3.1520     1.7040 ha         1 ROC       0.118000
     52 H6           9.0180     5.5470     1.4910 ha         1 ROC       0.117000
     53 H7           6.6370     6.1730     1.0930 ha         1 ROC       0.118000
     54 H8           4.8970     4.4040     0.9100 ha         1 ROC       0.131000
     55 H            3.1890     0.9320     0.7660 hn         1 ROC       0.347500
     56 HA           2.3030    -1.8960     0.3850 h1         1 ROC       0.108700
     57 HB2          1.0960    -0.0130     2.4770 hc         1 ROC       0.077200
     58 HB3          0.3390    -1.5500     1.9420 hc         1 ROC       0.077200
     59 HD21         2.7050    -0.0790     4.0460 hn         1 ROC       0.313000
     60 HD22         3.2830    -1.5650     4.7760 hn         1 ROC       0.313000
     61 HC          -1.8790     0.5070    -0.4520 h1         1 ROC       0.117700
     62 HO          -3.7910    -1.1160    -0.5520 ho         1 ROC       0.428000
     63 HA1         -0.4870     0.0620    -2.4180 h1         1 ROC       0.086700
     64 H1           0.0840    -2.0620    -0.4190 hn         1 ROC       0.332500
     65 HB21        -1.6180    -2.7710    -2.3430 hc         1 ROC       0.047700
     66 HB31        -1.6860    -1.6380    -3.6770 hc         1 ROC       0.047700
     67 HD1          0.0260    -4.4780    -2.5210 ha         1 ROC       0.112500
     68 HD2          0.8060    -0.6380    -4.3640 ha         1 ROC       0.112500
     69 HE1          2.1920    -5.3290    -3.3900 ha         1 ROC       0.112500
     70 HE2          2.9720    -1.4980    -5.2250 ha         1 ROC       0.112500
     71 HZ           3.6710    -3.8430    -4.7400 ha         1 ROC       0.112000
     72 H2          -5.1600     2.3580    -1.2650 h1         1 ROC       0.013700
     73 H31         -6.2360     0.2830     0.7260 hc         1 ROC       0.059700
     74 H32         -6.6290     2.0000     0.7290 hc         1 ROC       0.059700
     75 H3A         -7.5960     1.8630    -1.5310 hc         1 ROC       0.035700
     76 H41         -9.0900     1.3830     0.4550 hc         1 ROC       0.037200
     77 H42         -9.6430     0.6890    -1.0590 hc         1 ROC       0.037200
     78 H51         -8.2290    -0.8340     1.2150 hc         1 ROC       0.040200
     79 H52         -9.9110    -0.9850     0.7330 hc         1 ROC       0.040200
     80 H61         -8.5070    -2.8680    -0.1830 hc         1 ROC       0.036700
     81 H62         -9.2760    -1.9390    -1.4650 hc         1 ROC       0.036700
     82 H71         -6.3480    -1.7030    -0.5390 hc         1 ROC       0.054200
     83 H72         -6.9100    -2.3720    -2.0610 hc         1 ROC       0.054200
     84 H7A         -7.8020    -0.1860    -2.7900 hc         1 ROC       0.043700
     85 H81         -5.7450     1.0000    -3.2030 h1         1 ROC       0.029200
     86 H82         -5.4040    -0.7320    -3.2280 h1         1 ROC       0.029200
     87 HN1         -4.8370     0.9520     1.8940 hn         1 ROC       0.304500
     88 H11         -3.9910     3.7510     3.2760 hc         1 ROC       0.044700
     89 H12         -2.4090     3.4780     4.0310 hc         1 ROC       0.044700
     90 H13         -2.5100     3.8340     2.3030 hc         1 ROC       0.044700
     91 H21         -3.8420     0.0060     3.8970 hc         1 ROC       0.044700
     92 H22         -3.1030     1.2230     4.9550 hc         1 ROC       0.044700
     93 H23         -4.7300     1.4910     4.2990 hc         1 ROC       0.044700
     94 H311        -1.2270     1.6790     1.7170 hc         1 ROC       0.044700
     95 H321        -1.0800     1.2550     3.4260 hc         1 ROC       0.044700
     96 H33         -1.8190     0.1080     2.2910 hc         1 ROC       0.044700
     97 CM          -3.2560     0.3290    -2.1020 c3         1 ROC       0.148800
     98 HM1         -2.9670     1.3500    -2.3840 h1         1 ROC       0.033200
     99 HM2         -3.2500    -0.2580    -3.0280 h1         1 ROC       0.033200
@<TRIPOS>BOND
     1     1     2 2   
     2     1     4 1   
     3     1    13 1   
     4     3     4 ar  
     5     3    12 ar  
     6     4     5 ar  
     7     5     6 ar  
     8     5    49 1   
     9     6    11 ar  
    10     6    50 1   
    11     7     8 ar  
    12     7    11 ar  
    13     7    51 1   
    14     8     9 ar  
    15     8    52 1   
    16     9    10 ar  
    17     9    53 1   
    18    10    12 ar  
    19    10    54 1   
    20    11    12 ar  
    21    13    14 1   
    22    13    55 1   
    23    14    15 1   
    24    14    17 1   
    25    14    56 1   
    26    15    16 2   
    27    15    24 1   
    28    17    18 1   
    29    17    57 1   
    30    17    58 1   
    31    18    19 2   
    32    18    20 1   
    33    20    59 1   
    34    20    60 1   
    35    21    22 1   
    36    21    23 1   
    37    21    61 1   
    38    21    97 1   
    39    22    62 1   
    40    23    24 1   
    41    23    25 1   
    42    23    63 1   
    43    24    64 1   
    44    25    26 1   
    45    25    65 1   
    46    25    66 1   
    47    26    27 ar  
    48    26    28 ar  
    49    27    29 ar  
    50    27    67 1   
    51    28    30 ar  
    52    28    68 1   
    53    29    31 ar  
    54    29    69 1   
    55    30    31 ar  
    56    30    70 1   
    57    31    71 1   
    58    32    33 1   
    59    32    43 1   
    60    32    97 1   
    61    33    34 1   
    62    33    36 1   
    63    33    72 1   
    64    34    35 2   
    65    34    44 1   
    66    36    37 1   
    67    36    73 1   
    68    36    74 1   
    69    37    38 1   
    70    37    42 1   
    71    37    75 1   
    72    38    39 1   
    73    38    76 1   
    74    38    77 1   
    75    39    40 1   
    76    39    78 1   
    77    39    79 1   
    78    40    41 1   
    79    40    80 1   
    80    40    81 1   
    81    41    42 1   
    82    41    82 1   
    83    41    83 1   
    84    42    43 1   
    85    42    84 1   
    86    43    85 1   
    87    43    86 1   
    88    44    45 1   
    89    44    87 1   
    90    45    46 1   
    91    45    47 1   
    92    45    48 1   
    93    46    88 1   
    94    46    89 1   
    95    46    90 1   
    96    47    91 1   
    97    47    92 1   
    98    47    93 1   
    99    48    94 1   
   100    48    95 1   
   101    48    96 1   
   102    97    98 1   
   103    97    99 1   
@<TRIPOS>SUBSTRUCTURE
     1 ROC         1 TEMP              0 ****  ****    0 ROOT
