@<TRIPOS>MOLECULE
ROD
   33    34     1     0     0
SMALL
bcc


@<TRIPOS>ATOM
      1 OAA          3.6310     2.9400     0.3060 o          1 ROD      -0.795800
      2 CAP          2.5400     2.3630     0.1490 c          1 ROD       0.929800
      3 OAD          1.4070     2.8590     0.1420 o          1 ROD      -0.795800
      4 CAS          2.6580     0.8370    -0.0390 cc         1 ROD       0.027400
      5 NAN          3.9330     0.3990     0.1950 ns         1 ROD      -0.448100
      6 CAU          4.3470    -0.8910     0.1340 c          1 ROD       0.815500
      7 OAB          5.4910    -1.2480     0.3500 o          1 ROD      -0.684500
      8 NAO          3.3430    -1.7640    -0.1930 ns         1 ROD      -0.606500
      9 CAV          2.0230    -1.4490    -0.4620 c          1 ROD       0.718700
     10 OAC          1.2370    -2.3410    -0.7370 o          1 ROD      -0.652500
     11 CAT          1.6790    -0.0340    -0.3870 cd         1 ROD      -0.294400
     12 CAM          0.2480     0.3170    -0.6670 c3         1 ROD       0.020800
     13 CAL         -0.6090     0.2710     0.6070 c3         1 ROD      -0.046100
     14 CAQ         -2.0200     0.7310     0.3450 ca         1 ROD       0.000700
     15 CAJ         -2.2210     2.1050     0.2200 ca         1 ROD      -0.129000
     16 CAH         -3.4680     2.6410    -0.0570 ca         1 ROD      -0.107000
     17 CAI         -4.5580     1.7990    -0.2180 ca         1 ROD      -0.158000
     18 CAK         -4.3870     0.4300    -0.0990 ca         1 ROD      -0.098000
     19 CAR         -3.1310    -0.1070     0.1780 ca         1 ROD      -0.200300
     20 CAW         -2.9990    -1.5950     0.3140 c3         1 ROD       0.717200
     21 FAF         -2.6240    -1.9600     1.5510 f          1 ROD      -0.238300
     22 FAG         -4.1470    -2.2370     0.0680 f          1 ROD      -0.238300
     23 FAE         -2.0920    -2.1060    -0.5300 f          1 ROD      -0.238300
     24 H2           3.5980    -2.7420    -0.2440 hn         1 ROD       0.320500
     25 H4           0.1810     1.3090    -1.1050 hc         1 ROD       0.059200
     26 H5          -0.1540    -0.3860    -1.3950 hc         1 ROD       0.059200
     27 H6          -0.5610    -0.7250     1.0440 hc         1 ROD       0.063700
     28 H7          -0.1620     0.9480     1.3360 hc         1 ROD       0.063700
     29 H8          -1.3690     2.7630     0.3440 ha         1 ROD       0.176000
     30 H9          -3.5880     3.7130    -0.1430 ha         1 ROD       0.128000
     31 H10         -5.5380     2.2010    -0.4350 ha         1 ROD       0.122000
     32 H11         -5.2460    -0.2130    -0.2250 ha         1 ROD       0.133000
     33 H12          4.6050     1.1260     0.4130 hn         1 ROD       0.375500
@<TRIPOS>BOND
     1     1     2 1   
     2     2     3 1   
     3     2     4 1   
     4     4     5 1   
     5     4    11 2   
     6     5     6 1   
     7     5    33 1   
     8     6     7 2   
     9     6     8 1   
    10     8     9 1   
    11     8    24 1   
    12     9    10 2   
    13     9    11 1   
    14    11    12 1   
    15    12    13 1   
    16    12    25 1   
    17    12    26 1   
    18    13    14 1   
    19    13    27 1   
    20    13    28 1   
    21    14    15 ar  
    22    14    19 ar  
    23    15    16 ar  
    24    15    29 1   
    25    16    17 ar  
    26    16    30 1   
    27    17    18 ar  
    28    17    31 1   
    29    18    19 ar  
    30    18    32 1   
    31    19    20 1   
    32    20    21 1   
    33    20    22 1   
    34    20    23 1   
@<TRIPOS>SUBSTRUCTURE
     1 ROD         1 TEMP              0 ****  ****    0 ROOT
