@<TRIPOS>MOLECULE
ROD
   33    34     1     0     0
SMALL
No Charge or Current Charge


@<TRIPOS>ATOM
      1 OAA          3.5860     2.9890     0.5360 o          1 ROD      -0.690500
      2 CAP          2.5770     2.3710     0.2130 c          1 ROD       0.719200
      3 OAD          1.4990     2.9320     0.0790 o          1 ROD      -0.690500
      4 CAS          2.7150     0.8700    -0.0020 cc         1 ROD       0.027400
      5 NAN          3.9930     0.3560     0.2150 ns         1 ROD      -0.494600
      6 CAU          4.3700    -0.9410     0.1100 c          1 ROD       0.606000
      7 OAB          5.5070    -1.3140     0.3170 o          1 ROD      -0.609000
      8 NAO          3.3700    -1.7800    -0.2430 ns         1 ROD      -0.472500
      9 CAV          2.0670    -1.4810    -0.5020 c          1 ROD       0.576200
     10 OAC          1.2850    -2.3660    -0.8070 o          1 ROD      -0.577000
     11 CAT          1.7170    -0.0330    -0.3770 cd         1 ROD      -0.294400
     12 CAM          0.2620     0.3080    -0.6780 c3         1 ROD       0.020800
     13 CAL         -0.6130     0.3300     0.5950 c3         1 ROD      -0.046100
     14 CAQ         -2.0500     0.7820     0.3120 ca         1 ROD       0.000700
     15 CAJ         -2.2640     2.1680     0.1630 ca         1 ROD      -0.111000
     16 CAH         -3.5430     2.6800    -0.0950 ca         1 ROD      -0.089000
     17 CAI         -4.6300     1.8060    -0.2070 ca         1 ROD      -0.140000
     18 CAK         -4.4380     0.4240    -0.0630 ca         1 ROD      -0.080000
     19 CAR         -3.1530    -0.1150     0.1940 ca         1 ROD      -0.200300
     20 CAW         -2.9920    -1.6420     0.3470 c3         1 ROD       0.353300
     21 FAF         -2.6320    -1.9840     1.6050 f          1 ROD      -0.117000
     22 FAG         -4.1300    -2.3240     0.0810 f          1 ROD      -0.117000
     23 FAE         -2.0550    -2.1410    -0.4900 f          1 ROD      -0.117000
     24 H2           3.6220    -2.7510    -0.3250 hn         1 ROD       0.320500
     25 H4           0.1870     1.2690    -1.1960 hc         1 ROD       0.059200
     26 H5          -0.1730    -0.4060    -1.3880 hc         1 ROD       0.059200
     27 H6          -0.5700    -0.6520     1.0750 hc         1 ROD       0.063700
     28 H7          -0.1570     1.0160     1.3190 hc         1 ROD       0.063700
     29 H8          -1.4250     2.8570     0.2490 ha         1 ROD       0.158000
     30 H9          -3.6900     3.7530    -0.2070 ha         1 ROD       0.110000
     31 H10         -5.6240     2.1990    -0.4050 ha         1 ROD       0.104000
     32 H11         -5.3080    -0.2240    -0.1530 ha         1 ROD       0.115000
     33 H12          4.7350     0.9950     0.4850 hn         1 ROD       0.489000
@<TRIPOS>BOND
     1     1     2 1   
     2     2     3 1   
     3     2     4 1   
     4     4     5 1   
     5     4    11 2   
     6     5     6 1   
     7     5    33 1   
     8     6     7 2   
     9     6     8 1   
    10     8     9 1   
    11     8    24 1   
    12     9    10 2   
    13     9    11 1   
    14    11    12 1   
    15    12    13 1   
    16    12    25 1   
    17    12    26 1   
    18    13    14 1   
    19    13    27 1   
    20    13    28 1   
    21    14    15 ar  
    22    14    19 ar  
    23    15    16 ar  
    24    15    29 1   
    25    16    17 ar  
    26    16    30 1   
    27    17    18 ar  
    28    17    31 1   
    29    18    19 ar  
    30    18    32 1   
    31    19    20 1   
    32    20    21 1   
    33    20    22 1   
    34    20    23 1   
@<TRIPOS>SUBSTRUCTURE
     1 ROD         1 TEMP              0 ****  ****    0 ROOT
