@<TRIPOS>MOLECULE
ROE
   40    42     1     0     0
SMALL
bcc


@<TRIPOS>ATOM
      1 OAB         -3.9440    -3.1900     0.1340 o          1 ROE      -0.792800
      2 CAQ         -3.0660    -2.3070     0.1240 c          1 ROE       0.927800
      3 OAE         -1.8390    -2.4470     0.0770 o          1 ROE      -0.792800
      4 CAT         -3.6240    -0.8690     0.1520 cc         1 ROE       0.027400
      5 NAN         -4.9800    -0.8490    -0.0260 ns         1 ROE      -0.447100
      6 CAV         -5.7510     0.2670    -0.0790 c          1 ROE       0.814500
      7 OAC         -6.9580     0.2510    -0.2420 o          1 ROE      -0.685500
      8 NAO         -5.0330     1.4250     0.0650 ns         1 ROE      -0.604500
      9 CAW         -3.6690     1.5370     0.2600 c          1 ROE       0.720700
     10 OAD         -3.1650     2.6440     0.3630 o          1 ROE      -0.665500
     11 CAU         -2.9290     0.2820     0.3220 cd         1 ROE      -0.294400
     12 CAM         -1.4480     0.3960     0.5260 c3         1 ROE       0.019800
     13 CAL         -0.6930     0.5590    -0.8000 c3         1 ROE      -0.032100
     14 CAR          0.7860     0.6940    -0.5830 ca         1 ROE      -0.065300
     15 CAJ          1.6110    -0.4000    -0.5940 ca         1 ROE      -0.102000
     16 CAX          2.9990    -0.2830    -0.3480 ca         1 ROE      -0.064000
     17 CAI          3.8650    -1.3970    -0.3580 ca         1 ROE      -0.072000
     18 CAG          5.2070    -1.2650    -0.1210 ca         1 ROE      -0.212000
     19 CAS          5.7580     0.0120     0.1390 ca         1 ROE       0.121100
     20 OAP          7.0690     0.2190     0.3750 os         1 ROE      -0.328900
     21 CAA          7.9570    -0.8790     0.3340 c3         1 ROE       0.132700
     22 CAK          4.9380     1.1170     0.1590 ca         1 ROE      -0.167000
     23 CAY          3.5560     0.9950    -0.0800 ca         1 ROE      -0.008000
     24 CAH          2.6880     2.1150    -0.0670 ca         1 ROE      -0.148000
     25 CAF          1.3510     1.9640    -0.3090 ca         1 ROE      -0.102000
     26 H2          -5.4200    -1.7580    -0.1140 hn         1 ROE       0.375500
     27 H3          -5.5600     2.2870     0.0150 hn         1 ROE       0.318500
     28 H4          -1.2470     1.2600     1.1620 hc         1 ROE       0.057700
     29 H5          -1.0660    -0.4810     1.0400 hc         1 ROE       0.057700
     30 H6          -0.8980    -0.3100    -1.4260 hc         1 ROE       0.053700
     31 H7          -1.0730     1.4360    -1.3300 hc         1 ROE       0.053700
     32 H8           1.2000    -1.3840    -0.7990 ha         1 ROE       0.154000
     33 H9           3.4570    -2.3810    -0.5600 ha         1 ROE       0.134000
     34 H10          5.8320    -2.1470    -0.1360 ha         1 ROE       0.125000
     35 H11          8.9500    -0.4790     0.5230 h1         1 ROE       0.033367
     36 H12          7.7290    -1.6230     1.1020 h1         1 ROE       0.033367
     37 H13          7.9600    -1.3710    -0.6430 h1         1 ROE       0.033367
     38 H14          5.3600     2.0950     0.3620 ha         1 ROE       0.135000
     39 H15          3.0970     3.0970     0.1350 ha         1 ROE       0.121000
     40 H16          0.7040     2.8330    -0.2990 ha         1 ROE       0.134000
@<TRIPOS>BOND
     1     1     2 1   
     2     2     3 1   
     3     2     4 1   
     4     4     5 1   
     5     4    11 2   
     6     5     6 1   
     7     5    26 1   
     8     6     7 2   
     9     6     8 1   
    10     8     9 1   
    11     8    27 1   
    12     9    10 2   
    13     9    11 1   
    14    11    12 1   
    15    12    13 1   
    16    12    28 1   
    17    12    29 1   
    18    13    14 1   
    19    13    30 1   
    20    13    31 1   
    21    14    15 ar  
    22    14    25 ar  
    23    15    16 ar  
    24    15    32 1   
    25    16    17 ar  
    26    16    23 ar  
    27    17    18 ar  
    28    17    33 1   
    29    18    19 ar  
    30    18    34 1   
    31    19    20 1   
    32    19    22 ar  
    33    20    21 1   
    34    21    35 1   
    35    21    36 1   
    36    21    37 1   
    37    22    23 ar  
    38    22    38 1   
    39    23    24 ar  
    40    24    25 ar  
    41    24    39 1   
    42    25    40 1   
@<TRIPOS>SUBSTRUCTURE
     1 ROE         1 TEMP              0 ****  ****    0 ROOT
