@<TRIPOS>MOLECULE
ROE
   40    42     1     0     0
SMALL
No Charge or Current Charge


@<TRIPOS>ATOM
      1 OAB         -3.7980    -3.2490    -0.4060 o          1 ROE      -0.687500
      2 CAQ         -3.0270    -2.3260    -0.1660 c          1 ROE       0.717200
      3 OAE         -1.8180    -2.5010    -0.1070 o          1 ROE      -0.687500
      4 CAT         -3.6320    -0.9440     0.0420 cc         1 ROE       0.027400
      5 NAN         -5.0190    -0.8800    -0.0880 ns         1 ROE      -0.493600
      6 CAV         -5.7890     0.2290     0.0260 c          1 ROE       0.605000
      7 OAC         -6.9970     0.2050    -0.1030 o          1 ROE      -0.610000
      8 NAO         -5.0960     1.3590     0.2920 ns         1 ROE      -0.470500
      9 CAW         -3.7530     1.5070     0.4590 c          1 ROE       0.578200
     10 OAD         -3.2820     2.6090     0.6910 o          1 ROE      -0.590000
     11 CAU         -2.9600     0.2450     0.3320 cd         1 ROE      -0.294400
     12 CAM         -1.4590     0.4080     0.5330 c3         1 ROE       0.019800
     13 CAL         -0.7090     0.6490    -0.7930 c3         1 ROE      -0.032100
     14 CAR          0.7940     0.7830    -0.5890 ca         1 ROE      -0.065300
     15 CAJ          1.5980    -0.3680    -0.4820 ca         1 ROE      -0.084000
     16 CAX          2.9870    -0.2520    -0.2880 ca         1 ROE      -0.064000
     17 CAI          3.7900    -1.4030    -0.1810 ca         1 ROE      -0.054000
     18 CAG          5.1770    -1.2820     0.0130 ca         1 ROE      -0.194000
     19 CAS          5.7710    -0.0040     0.1010 ca         1 ROE       0.121100
     20 OAP          7.1260     0.1730     0.2910 os         1 ROE      -0.352100
     21 CAA          8.0360    -0.9350     0.4130 c3         1 ROE       0.155900
     22 CAK          4.9680     1.1430    -0.0050 ca         1 ROE      -0.149000
     23 CAY          3.5790     1.0260    -0.1990 ca         1 ROE      -0.008000
     24 CAH          2.7770     2.1770    -0.3050 ca         1 ROE      -0.130000
     25 CAF          1.3900     2.0560    -0.4980 ca         1 ROE      -0.084000
     26 H2          -5.5290    -1.7340    -0.2950 hn         1 ROE       0.489000
     27 H3          -5.6440     2.1990     0.3780 hn         1 ROE       0.318500
     28 H4          -1.2400     1.2430     1.2100 hc         1 ROE       0.057700
     29 H5          -1.0330    -0.4630     1.0440 hc         1 ROE       0.057700
     30 H6          -0.9200    -0.1770    -1.4830 hc         1 ROE       0.053700
     31 H7          -1.1100     1.5520    -1.2710 hc         1 ROE       0.053700
     32 H8           1.1380    -1.3530    -0.5480 ha         1 ROE       0.136000
     33 H9           3.3400    -2.3910    -0.2480 ha         1 ROE       0.116000
     34 H10          5.7710    -2.1880     0.0920 ha         1 ROE       0.107000
     35 H11          9.0600    -0.5720     0.5580 h1         1 ROE       0.033367
     36 H12          7.7720    -1.5620     1.2740 h1         1 ROE       0.033367
     37 H13          8.0190    -1.5540    -0.4930 h1         1 ROE       0.033367
     38 H14          5.4280     2.1250     0.0640 ha         1 ROE       0.117000
     39 H15          3.2260     3.1650    -0.2360 ha         1 ROE       0.103000
     40 H16          0.7790     2.9520    -0.5750 ha         1 ROE       0.116000
@<TRIPOS>BOND
     1     1     2 1   
     2     2     3 1   
     3     2     4 1   
     4     4     5 1   
     5     4    11 2   
     6     5     6 1   
     7     5    26 1   
     8     6     7 2   
     9     6     8 1   
    10     8     9 1   
    11     8    27 1   
    12     9    10 2   
    13     9    11 1   
    14    11    12 1   
    15    12    13 1   
    16    12    28 1   
    17    12    29 1   
    18    13    14 1   
    19    13    30 1   
    20    13    31 1   
    21    14    15 ar  
    22    14    25 ar  
    23    15    16 ar  
    24    15    32 1   
    25    16    17 ar  
    26    16    23 ar  
    27    17    18 ar  
    28    17    33 1   
    29    18    19 ar  
    30    18    34 1   
    31    19    20 1   
    32    19    22 ar  
    33    20    21 1   
    34    21    35 1   
    35    21    36 1   
    36    21    37 1   
    37    22    23 ar  
    38    22    38 1   
    39    23    24 ar  
    40    24    25 ar  
    41    24    39 1   
    42    25    40 1   
@<TRIPOS>SUBSTRUCTURE
     1 ROE         1 TEMP              0 ****  ****    0 ROOT
