@<TRIPOS>MOLECULE
ROF
   40    42     1     0     0
SMALL
No Charge or Current Charge


@<TRIPOS>ATOM
      1 O24         -1.6910    -0.4870     1.6560 o          1 ROF      -0.555100
      2 C23         -4.7060    -0.8500    -4.9920 cx         1 ROF      -0.120900
      3 C22         -3.6680     0.0870    -5.5660 cx         1 ROF      -0.120900
      4 C21         -3.2380    -1.0940    -4.7260 cx         1 ROF      -0.135700
      5 C8          -0.5250    -0.1930     1.4120 c          1 ROF       0.622700
      6 C9           0.0020    -0.1210    -0.0140 ca         1 ROF      -0.106600
      7 C10          1.3500     0.2000    -0.3020 ca         1 ROF      -0.118000
      8 C11          1.8100     0.2590    -1.6290 ca         1 ROF      -0.080000
      9 C12          0.9340     0.0000    -2.7070 ca         1 ROF       0.068100
     10 O15          1.3410     0.0470    -4.0360 os         1 ROF      -0.375100
     11 C16          2.6810     0.3600    -4.4750 c3         1 ROF       0.385300
     12 F18          3.0600     1.5940    -4.0650 f          1 ROF      -0.133500
     13 F17          3.5810    -0.5230    -3.9800 f          1 ROF      -0.133500
     14 C13         -0.4160    -0.3200    -2.4340 ca         1 ROF       0.153100
     15 O19         -1.2620    -0.5700    -3.5030 os         1 ROF      -0.322100
     16 C20         -2.6500    -0.8980    -3.3340 c3         1 ROF       0.190600
     17 C14         -0.8710    -0.3790    -1.0960 ca         1 ROF      -0.154000
     18 N7           0.3900     0.0640     2.4200 ns         1 ROF      -0.160000
     19 C6           0.1960     0.1300     3.8240 ca         1 ROF       0.011000
     20 C5          -0.7600     0.9830     4.4240 ca         1 ROF       0.047500
     21 Cl26        -1.7450     2.1040     3.4750 cl         1 ROF      -0.162500
     22 C4          -0.8840     0.9860     5.8300 ca         1 ROF       0.361900
     23 N3          -0.1260     0.2150     6.6500 nb         1 ROF      -0.655000
     24 C2           0.8020    -0.5860     6.0700 ca         1 ROF       0.361900
     25 C1           1.0020    -0.6540     4.6750 ca         1 ROF       0.047500
     26 Cl25         2.2390    -1.7290     4.0140 cl         1 ROF      -0.162500
     27 H232        -5.3220    -0.4820    -4.1740 hc         1 ROF       0.075200
     28 H221        -3.5860     1.0810    -5.1310 hc         1 ROF       0.075200
     29 H222        -3.4790     0.0430    -6.6360 hc         1 ROF       0.075200
     30 H21         -2.7800    -1.9300    -5.2510 hc         1 ROF       0.091700
     31 H10          2.0640     0.4080     0.4910 ha         1 ROF       0.124000
     32 H11          2.8530     0.5100    -1.7940 ha         1 ROF       0.138000
     33 H16          2.7350     0.3290    -5.5680 h3         1 ROF       0.106700
     34 H201        -2.7660    -1.8230    -2.7550 h1         1 ROF       0.043200
     35 H202        -3.1800    -0.0880    -2.8150 h1         1 ROF       0.043200
     36 H14         -1.9070    -0.6250    -0.8810 ha         1 ROF       0.144000
     37 HN7          1.3420     0.2120     2.1150 hn         1 ROF       0.172000
     38 H4          -1.6070     1.6390     6.3170 h4         1 ROF       0.040100
     39 H2           1.4070    -1.1910     6.7440 h4         1 ROF       0.040100
     40 H231        -5.2160    -1.5230    -5.6770 hc         1 ROF       0.075200
@<TRIPOS>BOND
     1     1     5 2   
     2     2     3 1   
     3     2     4 1   
     4     2    27 1   
     5     2    40 1   
     6     3     4 1   
     7     3    28 1   
     8     3    29 1   
     9     4    16 1   
    10     4    30 1   
    11     5     6 1   
    12     5    18 1   
    13     6     7 ar  
    14     6    17 ar  
    15     7     8 ar  
    16     7    31 1   
    17     8     9 ar  
    18     8    32 1   
    19     9    10 1   
    20     9    14 ar  
    21    10    11 1   
    22    11    12 1   
    23    11    13 1   
    24    11    33 1   
    25    14    15 1   
    26    14    17 ar  
    27    15    16 1   
    28    16    34 1   
    29    16    35 1   
    30    17    36 1   
    31    18    19 1   
    32    18    37 1   
    33    19    20 ar  
    34    19    25 ar  
    35    20    21 1   
    36    20    22 ar  
    37    22    23 ar  
    38    22    38 1   
    39    23    24 ar  
    40    24    25 ar  
    41    24    39 1   
    42    25    26 1   
@<TRIPOS>SUBSTRUCTURE
     1 ROF         1 TEMP              0 ****  ****    0 ROOT
