@<TRIPOS>MOLECULE
ROF
   40    42     1     0     0
SMALL
bcc


@<TRIPOS>ATOM
      1 O24         -1.6030     0.1070     1.6270 o          1 ROF      -0.555100
      2 C23         -4.3540    -1.2960    -4.7430 cx         1 ROF      -0.120900
      3 C22         -3.5340    -0.2400    -5.4160 cx         1 ROF      -0.120900
      4 C21         -2.8650    -1.2790    -4.5720 cx         1 ROF      -0.135700
      5 C8          -0.4230     0.2200     1.3680 c          1 ROF       0.689700
      6 C9           0.0820     0.4010    -0.0210 ca         1 ROF      -0.106600
      7 C10          1.2940     1.0190    -0.2940 ca         1 ROF      -0.136000
      8 C11          1.6960     1.1800    -1.6130 ca         1 ROF      -0.098000
      9 C12          0.8980     0.7230    -2.6410 ca         1 ROF       0.068100
     10 O15          1.2590     0.9220    -3.9550 os         1 ROF      -0.351900
     11 C16          2.1030     0.0250    -4.5240 c3         1 ROF       0.604700
     12 F18          3.3250     0.0660    -3.9400 f          1 ROF      -0.254800
     13 F17          1.6640    -1.2410    -4.3560 f          1 ROF      -0.254800
     14 C13         -0.3370     0.1090    -2.3820 ca         1 ROF       0.153100
     15 O19         -1.0470    -0.2760    -3.4450 os         1 ROF      -0.298900
     16 C20         -2.3090    -0.9020    -3.2360 c3         1 ROF       0.167400
     17 C14         -0.7380    -0.0360    -1.0610 ca         1 ROF      -0.172000
     18 N7           0.5400     0.1840     2.3390 ns         1 ROF      -0.486100
     19 C6           0.2250     0.0560     3.6880 ca         1 ROF       0.103600
     20 C5          -0.5180     1.0160     4.3730 ca         1 ROF      -0.109400
     21 CL26        -1.0380     2.4510     3.5910 cl         1 ROF      -0.070900
     22 C4          -0.8000     0.8360     5.7190 ca         1 ROF       0.427200
     23 N3          -0.3700    -0.2100     6.4060 nb         1 ROF      -0.655000
     24 C2           0.3580    -1.1230     5.7850 ca         1 ROF       0.427200
     25 C1           0.6660    -1.0330     4.4360 ca         1 ROF      -0.109400
     26 CL25         1.5870    -2.2750     3.6860 cl         1 ROF      -0.070900
     27 H232        -4.9630    -1.0020    -3.8970 hc         1 ROF       0.075200
     28 H221        -3.5910     0.7710    -5.0300 hc         1 ROF       0.075200
     29 H222        -3.4010    -0.2980    -6.4890 hc         1 ROF       0.075200
     30 H21         -2.3100    -2.0510    -5.0950 hc         1 ROF       0.091700
     31 H10          1.9230     1.4090     0.4950 ha         1 ROF       0.142000
     32 H11          2.6230     1.6890    -1.8380 ha         1 ROF       0.156000
     33 H16          2.1940     0.2550    -5.5830 h3         1 ROF       0.106700
     34 H201        -2.1880    -1.7910    -2.6080 h1         1 ROF       0.043200
     35 H202        -2.9890    -0.2160    -2.7180 h1         1 ROF       0.043200
     36 H14         -1.6850    -0.4970    -0.8170 ha         1 ROF       0.162000
     37 HN7          1.4930    -0.0110     2.0680 hn         1 ROF       0.338500
     38 H4          -1.3850     1.5770     6.2510 h4         1 ROF       0.040100
     39 H2           0.7070    -1.9690     6.3650 h4         1 ROF       0.040100
     40 H231        -4.7840    -2.0830    -5.3480 hc         1 ROF       0.075200
@<TRIPOS>BOND
     1     1     5 2   
     2     2     3 1   
     3     2     4 1   
     4     2    27 1   
     5     2    40 1   
     6     3     4 1   
     7     3    28 1   
     8     3    29 1   
     9     4    16 1   
    10     4    30 1   
    11     5     6 1   
    12     5    18 1   
    13     6     7 ar  
    14     6    17 ar  
    15     7     8 ar  
    16     7    31 1   
    17     8     9 ar  
    18     8    32 1   
    19     9    10 1   
    20     9    14 ar  
    21    10    11 1   
    22    11    12 1   
    23    11    13 1   
    24    11    33 1   
    25    14    15 1   
    26    14    17 ar  
    27    15    16 1   
    28    16    34 1   
    29    16    35 1   
    30    17    36 1   
    31    18    19 1   
    32    18    37 1   
    33    19    20 ar  
    34    19    25 ar  
    35    20    21 1   
    36    20    22 ar  
    37    22    23 ar  
    38    22    38 1   
    39    23    24 ar  
    40    24    25 ar  
    41    24    39 1   
    42    25    26 1   
@<TRIPOS>SUBSTRUCTURE
     1 ROF         1 TEMP              0 ****  ****    0 ROOT
