@<TRIPOS>MOLECULE
ROG
   47    50     1     0     0
SMALL
bcc


@<TRIPOS>ATOM
      1 C10         18.8850   -10.0410    43.0420 c6         1 ROG       0.166800
      2 C12         16.7110   -10.9160    42.5580 c3         1 ROG       0.155100
      3 C13         17.8670    -9.6300    40.9090 c6         1 ROG       0.166800
      4 C15         19.3500   -11.4320    35.1680 ca         1 ROG       0.509600
      5 C16         20.6900   -11.6840    35.4600 ca         1 ROG      -0.374400
      6 C17         21.2980   -12.6040    34.5340 cc         1 ROG      -0.041400
      7 C18         20.4130   -13.0410    33.6030 cd         1 ROG      -0.078600
      8 C20         22.0070   -14.7550    32.8100 c6         1 ROG      -0.071400
      9 C21         23.0910   -13.7710    33.2280 c6         1 ROG      -0.072400
     10 C22         22.7300   -13.0560    34.5290 c6         1 ROG      -0.018200
     11 C02         21.1760   -11.0030    36.6040 ca         1 ROG       0.771200
     12 N03         20.3750   -10.1700    37.2730 nb         1 ROG      -0.830000
     13 C04         19.1290   -10.0200    36.8620 ca         1 ROG       0.816300
     14 S05         18.0700    -8.9050    37.7170 ss         1 ROG      -0.271400
     15 C06         19.0950    -8.3520    39.1060 c3         1 ROG      -0.001300
     16 C07         19.2130    -9.3460    40.2530 c6         1 ROG      -0.057700
     17 C08         20.1970    -8.8190    41.2950 c6         1 ROG      -0.072400
     18 C09         20.2720    -9.7690    42.4840 c6         1 ROG      -0.074400
     19 N11         18.0010   -10.5570    42.0150 n3         1 ROG      -0.715600
     20 N14         18.5420   -10.6160    35.8390 nb         1 ROG      -0.701000
     21 C19         20.6990   -14.0240    32.5160 c6         1 ROG      -0.007200
     22 S23         18.8300   -12.3380    33.7910 ss         1 ROG      -0.111900
     23 H1          18.4850    -9.1110    43.4870 h1         1 ROG       0.028700
     24 H2          18.9450   -10.7740    43.8510 h1         1 ROG       0.028700
     25 H3          16.8310   -11.6560    43.3510 h1         1 ROG       0.029700
     26 H4          16.1610   -10.0600    42.9800 h1         1 ROG       0.029700
     27 H5          16.0870   -11.3580    41.7790 h1         1 ROG       0.029700
     28 H6          17.4150    -8.6730    41.2360 h1         1 ROG       0.036700
     29 H7          17.1820   -10.0650    40.1760 h1         1 ROG       0.036700
     30 H9          22.3180   -15.3140    31.9270 hc         1 ROG       0.044700
     31 H10         24.0470   -14.2820    33.3490 hc         1 ROG       0.044700
     32 H11         23.2280   -13.0290    32.4350 hc         1 ROG       0.044700
     33 H12         22.9080   -13.7240    35.3800 hc         1 ROG       0.044200
     34 H13         23.3980   -12.2000    34.6570 hc         1 ROG       0.044200
     35 H14         22.6740   -10.6820    37.9280 hn         1 ROG       0.443300
     36 H15         23.0530   -11.8360    36.7160 hn         1 ROG       0.443300
     37 H16         20.0800    -8.0940    38.7180 h1         1 ROG       0.077700
     38 H17         18.6220    -7.4250    39.4430 h1         1 ROG       0.077700
     39 H18         19.6070   -10.2880    39.8560 hc         1 ROG       0.076700
     40 H19         21.1840    -8.6820    40.8460 hc         1 ROG       0.037700
     41 H20         19.8670    -7.8310    41.6390 hc         1 ROG       0.037700
     42 H21         20.7290   -10.7130    42.1730 hc         1 ROG       0.045200
     43 H22         20.9040    -9.3510    43.2700 hc         1 ROG       0.045200
     44 H24         20.7650   -13.5070    31.5530 hc         1 ROG       0.053700
     45 H25         19.8780   -14.7390    32.4220 hc         1 ROG       0.053700
     46 H8          21.8460   -15.4850    33.6090 hc         1 ROG       0.044700
     47 N01         22.4230   -11.1370    37.0670 nv         1 ROG      -0.963500
@<TRIPOS>BOND
     1     1    18 1   
     2     1    19 1   
     3     1    23 1   
     4     1    24 1   
     5     2    19 1   
     6     2    25 1   
     7     2    26 1   
     8     2    27 1   
     9     3    16 1   
    10     3    19 1   
    11     3    28 1   
    12     3    29 1   
    13     4     5 ar  
    14     4    20 ar  
    15     4    22 1   
    16     5     6 1   
    17     5    11 ar  
    18     6     7 2   
    19     6    10 1   
    20     7    21 1   
    21     7    22 1   
    22     8     9 1   
    23     8    21 1   
    24     8    30 1   
    25     8    46 1   
    26     9    10 1   
    27     9    31 1   
    28     9    32 1   
    29    10    33 1   
    30    10    34 1   
    31    11    12 ar  
    32    11    47 1   
    33    12    13 ar  
    34    13    14 1   
    35    13    20 ar  
    36    14    15 1   
    37    15    16 1   
    38    15    37 1   
    39    15    38 1   
    40    16    17 1   
    41    16    39 1   
    42    17    18 1   
    43    17    40 1   
    44    17    41 1   
    45    18    42 1   
    46    18    43 1   
    47    21    44 1   
    48    21    45 1   
    49    35    47 1   
    50    36    47 1   
@<TRIPOS>SUBSTRUCTURE
     1 ROG         1 TEMP              0 ****  ****    0 ROOT
