@<TRIPOS>MOLECULE
ROG
   47    50     1     0     0
SMALL
No Charge or Current Charge


@<TRIPOS>ATOM
      1 C10         18.7630   -10.7510    42.6090 c6         1 ROG       0.166800
      2 C12         16.5940   -11.3900    41.6330 c3         1 ROG       0.155100
      3 C13         17.9650    -9.6480    40.5540 c6         1 ROG       0.166800
      4 C15         19.3300   -11.2380    35.6410 ca         1 ROG       0.181300
      5 C16         20.7090   -11.2490    35.5460 ca         1 ROG      -0.243800
      6 C17         21.2320   -12.3860    34.7960 cc         1 ROG      -0.041400
      7 C18         20.1760   -13.2040    34.3960 cd         1 ROG      -0.078600
      8 C20         21.8020   -15.0100    33.6960 c6         1 ROG      -0.071400
      9 C21         22.7970   -13.8620    33.4210 c6         1 ROG      -0.072400
     10 C22         22.6760   -12.7410    34.4850 c6         1 ROG      -0.018200
     11 C02         21.3930   -10.1950    36.1740 ca         1 ROG       0.442900
     12 N03         20.7410    -9.2250    36.8270 nb         1 ROG      -0.304000
     13 C04         19.3920    -9.3090    36.8550 ca         1 ROG       0.290300
     14 S05         18.5080    -8.0280    37.7300 ss         1 ROG      -0.319300
     15 C06         19.4200    -7.8940    39.3380 c3         1 ROG       0.046600
     16 C07         19.4070    -9.2060    40.1760 c6         1 ROG      -0.057700
     17 C08         20.2750    -9.0560    41.4520 c6         1 ROG      -0.072400
     18 C09         20.2250   -10.3500    42.2960 c6         1 ROG      -0.074400
     19 N11         17.9620   -10.9000    41.3640 n3         1 ROG      -0.715600
     20 N14         18.6450   -10.2800    36.2880 nb         1 ROG      -0.175000
     21 C19         20.3480   -14.4920    33.6180 c6         1 ROG      -0.007200
     22 S23         18.5540   -12.6110    34.8470 ss         1 ROG      -0.111900
     23 H1          18.3130    -9.9870    43.2610 h1         1 ROG       0.028700
     24 H2          18.7700   -11.6950    43.1720 h1         1 ROG       0.028700
     25 H3          16.6230   -12.3450    42.1750 h1         1 ROG       0.029700
     26 H4          16.0300   -10.6680    42.2380 h1         1 ROG       0.029700
     27 H5          16.0480   -11.5520    40.6930 h1         1 ROG       0.029700
     28 H6          17.4740    -8.8360    41.1110 h1         1 ROG       0.036700
     29 H7          17.3850    -9.8050    39.6340 h1         1 ROG       0.036700
     30 H9          21.9480   -15.8220    32.9710 hc         1 ROG       0.044700
     31 H10         23.8250   -14.2490    33.4040 hc         1 ROG       0.044700
     32 H11         22.6060   -13.4440    32.4230 hc         1 ROG       0.044700
     33 H12         23.1800   -13.0690    35.4050 hc         1 ROG       0.044200
     34 H13         23.2270   -11.8620    34.1250 hc         1 ROG       0.044200
     35 H14         23.1490    -9.4100    36.8450 hn         1 ROG       0.498500
     36 H15         23.3010   -10.8940    35.9740 hn         1 ROG       0.498500
     37 H16         20.4600    -7.6130    39.1270 h1         1 ROG       0.077700
     38 H17         18.9680    -7.0870    39.9290 h1         1 ROG       0.077700
     39 H18         19.8520    -9.9900    39.5480 hc         1 ROG       0.076700
     40 H19         21.3150    -8.8290    41.1810 hc         1 ROG       0.037700
     41 H20         19.9140    -8.2100    42.0540 hc         1 ROG       0.037700
     42 H21         20.7210   -11.1670    41.7550 hc         1 ROG       0.045200
     43 H22         20.7810   -10.2100    43.2330 hc         1 ROG       0.045200
     44 H24         20.0770   -14.3230    32.5670 hc         1 ROG       0.053700
     45 H25         19.6610   -15.2640    33.9920 hc         1 ROG       0.053700
     46 H8          21.9930   -15.4350    34.6900 hc         1 ROG       0.044700
     47 N01         22.7430   -10.0770    36.1930 nv         1 ROG      -1.073900
@<TRIPOS>BOND
     1     1    18 1   
     2     1    19 1   
     3     1    23 1   
     4     1    24 1   
     5     2    19 1   
     6     2    25 1   
     7     2    26 1   
     8     2    27 1   
     9     3    16 1   
    10     3    19 1   
    11     3    28 1   
    12     3    29 1   
    13     4     5 ar  
    14     4    20 ar  
    15     4    22 1   
    16     5     6 1   
    17     5    11 ar  
    18     6     7 2   
    19     6    10 1   
    20     7    21 1   
    21     7    22 1   
    22     8     9 1   
    23     8    21 1   
    24     8    30 1   
    25     8    46 1   
    26     9    10 1   
    27     9    31 1   
    28     9    32 1   
    29    10    33 1   
    30    10    34 1   
    31    11    12 ar  
    32    11    47 1   
    33    12    13 ar  
    34    13    14 1   
    35    13    20 ar  
    36    14    15 1   
    37    15    16 1   
    38    15    37 1   
    39    15    38 1   
    40    16    17 1   
    41    16    39 1   
    42    17    18 1   
    43    17    40 1   
    44    17    41 1   
    45    18    42 1   
    46    18    43 1   
    47    21    44 1   
    48    21    45 1   
    49    35    47 1   
    50    36    47 1   
@<TRIPOS>SUBSTRUCTURE
     1 ROG         1 TEMP              0 ****  ****    0 ROOT
