@<TRIPOS>MOLECULE
ROI
   26    27     1     0     0
SMALL
bcc


@<TRIPOS>ATOM
      1 N1           1.4150    -0.2680    -1.4860 nc         1 ROI      -0.767300
      2 C2           0.7720    -0.1340    -2.6210 cd         1 ROI       0.764800
      3 N2           1.4470    -0.1830    -3.7720 nv         1 ROI      -0.952800
      4 N3          -0.5650     0.0630    -2.6800 ns         1 ROI      -0.518400
      5 C4          -1.4040     0.1060    -1.5590 c          1 ROI       0.757700
      6 O4          -2.6110     0.2550    -1.7200 o          1 ROI      -0.610500
      7 C4A         -0.7040    -0.0330    -0.3340 cd         1 ROI      -0.172600
      8 N5          -1.4090    -0.1040     0.8640 nf         1 ROI      -0.583300
      9 C6          -0.7550    -0.0890     1.9460 c2         1 ROI       0.563600
     10 C7           0.7450     0.1070     2.0640 c6         1 ROI       0.194900
     11 C16          1.3580    -0.7080     3.1990 c3         1 ROI      -0.101600
     12 C15          1.0280     1.6020     2.2700 c3         1 ROI      -0.101600
     13 N8           1.3150    -0.3680     0.8100 nu         1 ROI      -0.740000
     14 C8A          0.6730    -0.2030    -0.3650 cc         1 ROI       0.433600
     15 O9          -1.3710    -0.1770     3.1270 oh         1 ROI      -0.581600
     16 HN21         2.4420    -0.3190    -3.7510 hn         1 ROI       0.455800
     17 HN22         0.9960    -0.1040    -4.6670 hn         1 ROI       0.455800
     18 HN3         -1.0120     0.1760    -3.5790 hn         1 ROI       0.323500
     19 H161         1.0160    -0.3600     4.1720 hc         1 ROI       0.049367
     20 H162         1.1250    -1.7680     3.1030 hc         1 ROI       0.049367
     21 H163         2.4440    -0.5970     3.1760 hc         1 ROI       0.049367
     22 H151         0.5820     1.9630     3.1980 hc         1 ROI       0.049367
     23 H152         2.1050     1.7690     2.3260 hc         1 ROI       0.049367
     24 H153         0.6320     2.1960     1.4440 hc         1 ROI       0.049367
     25 HN8          2.3230    -0.4130     0.7650 hn         1 ROI       0.439800
     26 HO9         -2.3240    -0.2440     2.9740 ho         1 ROI       0.444000
@<TRIPOS>BOND
     1     1     2 2   
     2     1    14 1   
     3     2     3 1   
     4     2     4 1   
     5     3    16 1   
     6     3    17 1   
     7     4     5 1   
     8     4    18 1   
     9     5     6 2   
    10     5     7 1   
    11     7     8 1   
    12     7    14 2   
    13     8     9 2   
    14     9    10 1   
    15     9    15 1   
    16    10    11 1   
    17    10    12 1   
    18    10    13 1   
    19    11    19 1   
    20    11    20 1   
    21    11    21 1   
    22    12    22 1   
    23    12    23 1   
    24    12    24 1   
    25    13    14 1   
    26    13    25 1   
    27    15    26 1   
@<TRIPOS>SUBSTRUCTURE
     1 ROI         1 TEMP              0 ****  ****    0 ROOT
