@<TRIPOS>MOLECULE
ROI
   26    27     1     0     0
SMALL
No Charge or Current Charge


@<TRIPOS>ATOM
      1 N1           1.3660    -0.0110    -1.5200 nc         1 ROI      -0.767300
      2 C2           0.6940    -0.0880    -2.6240 cd         1 ROI       0.764800
      3 N2           1.4290    -0.1200    -3.7150 nv         1 ROI      -1.063200
      4 N3          -0.6250    -0.1440    -2.7660 ns         1 ROI      -0.451400
      5 C4          -1.4760    -0.1190    -1.7190 c          1 ROI       0.615200
      6 O4          -2.6860    -0.1630    -1.8860 o          1 ROI      -0.535000
      7 C4A         -0.8110    -0.0320    -0.3860 cd         1 ROI      -0.172600
      8 N5          -1.4610     0.0150     0.8670 nf         1 ROI      -0.583300
      9 C6          -0.7900     0.1320     1.9870 c2         1 ROI       0.563600
     10 C7           0.7760     0.2260     2.0560 c6         1 ROI       0.194900
     11 C16          1.3480    -0.9080     2.9530 c3         1 ROI      -0.101600
     12 C15          1.2050     1.6010     2.6410 c3         1 ROI      -0.101600
     13 N8           1.3630     0.0890     0.7010 nu         1 ROI      -0.795200
     14 C8A          0.5870     0.0110    -0.4060 cc         1 ROI       0.433600
     15 O9          -1.4740     0.1810     3.1300 oh         1 ROI      -0.620600
     16 HN21         2.4100    -0.2590    -3.5100 hn         1 ROI       0.511000
     17 HN22         1.0760    -0.6710    -4.4870 hn         1 ROI       0.511000
     18 HN3         -1.0370    -0.1790    -3.6830 hn         1 ROI       0.323500
     19 H161         0.9760    -0.8330     3.9820 hc         1 ROI       0.049367
     20 H162         1.0610    -1.8950     2.5700 hc         1 ROI       0.049367
     21 H163         2.4430    -0.8740     2.9950 hc         1 ROI       0.049367
     22 H151         0.8210     1.7400     3.6590 hc         1 ROI       0.049367
     23 H152         2.2970     1.6970     2.6850 hc         1 ROI       0.049367
     24 H153         0.8220     2.4270     2.0290 hc         1 ROI       0.049367
     25 HN8          2.3530     0.2350     0.5240 hn         1 ROI       0.495000
     26 HO9         -2.4020     0.1070     2.8290 ho         1 ROI       0.483000
@<TRIPOS>BOND
     1     1     2 2   
     2     1    14 1   
     3     2     3 1   
     4     2     4 1   
     5     3    16 1   
     6     3    17 1   
     7     4     5 1   
     8     4    18 1   
     9     5     6 2   
    10     5     7 1   
    11     7     8 1   
    12     7    14 2   
    13     8     9 2   
    14     9    10 1   
    15     9    15 1   
    16    10    11 1   
    17    10    12 1   
    18    10    13 1   
    19    11    19 1   
    20    11    20 1   
    21    11    21 1   
    22    12    22 1   
    23    12    23 1   
    24    12    24 1   
    25    13    14 1   
    26    13    25 1   
    27    15    26 1   
@<TRIPOS>SUBSTRUCTURE
     1 ROI         1 TEMP              0 ****  ****    0 ROOT
