@<TRIPOS>MOLECULE
ROJ
   55    58     1     0     0
SMALL
No Charge or Current Charge


@<TRIPOS>ATOM
      1 C2         -11.1810   -21.6890     9.3330 c5         1 ROJ       0.102300
      2 C4          -9.3320   -20.3390    10.1370 c5         1 ROJ       0.125300
      3 C5          -8.0030   -20.5310     9.3530 c3         1 ROJ       0.236600
      4 C6          -4.7700   -21.0700     5.1030 c3         1 ROJ       0.210600
      5 O6          -5.9740   -19.4300     7.3860 os         1 ROJ      -0.727800
      6 C8          -7.2920   -23.7530     5.3050 c5         1 ROJ       0.283300
      7 N1          -7.5080   -24.1550     6.6930 na         1 ROJ      -0.300300
      8 N3          -9.1430   -25.9990    10.5940 nv         1 ROJ      -1.079900
      9 C1         -10.0910   -21.6860    10.4450 c5         1 ROJ       0.116300
     10 Cl1        -10.6280   -22.3440     7.7260 cl         1 ROJ      -0.266000
     11 C3         -11.5350   -20.1840     9.3190 c5         1 ROJ       0.152600
     12 O2         -10.2530   -19.5270     9.3530 os         1 ROJ      -0.403000
     13 O3          -7.2700   -19.3000     9.3770 os         1 ROJ      -0.580400
     14 P1          -5.7230   -19.2860     8.9340 p5         1 ROJ       1.471800
     15 O4          -5.1250   -17.9840     9.3560 o          1 ROJ      -0.849500
     16 O5          -5.0090   -20.4640     9.5060 o          1 ROJ      -0.849500
     17 P2          -4.7900   -18.8510     6.5280 p5         1 ROJ       1.458800
     18 O7          -3.4170   -19.2090     6.9860 o          1 ROJ      -0.838500
     19 O8          -4.9600   -17.3960     6.2470 o          1 ROJ      -0.838500
     20 O9          -5.1440   -19.6780     5.1890 os         1 ROJ      -0.612400
     21 C7          -5.9910   -21.9070     4.6320 c5         1 ROJ       0.107300
     22 O10         -5.9360   -23.2490     5.1790 os         1 ROJ      -0.451000
     23 C9          -6.9550   -23.5400     7.8230 cc         1 ROJ       0.467700
     24 N2          -7.4280   -24.0870     8.9610 nd         1 ROJ      -0.576100
     25 C10         -8.3170   -25.0640     8.5030 ca         1 ROJ      -0.080600
     26 C11         -9.1300   -25.9560     9.2350 ca         1 ROJ       0.438900
     27 N4          -9.9470   -26.8200     8.6130 nb         1 ROJ      -0.324000
     28 C12         -9.9340   -26.7820     7.2580 ca         1 ROJ       0.153900
     29 N5          -9.1850   -25.9680     6.4770 nb         1 ROJ      -0.224000
     30 C13         -8.3760   -25.1120     7.1330 ca         1 ROJ       0.097500
     31 C14         -8.2480   -22.6400     4.7330 c5         1 ROJ       0.119300
     32 O11         -8.4690   -22.7870     3.3090 oh         1 ROJ      -0.687000
     33 C15         -7.3820   -21.3930     5.1030 c5         1 ROJ       0.175300
     34 O12         -7.7730   -20.1640     4.4740 oh         1 ROJ      -0.715000
     35 H1         -12.0440   -22.3090     9.6050 h1         1 ROJ       0.077700
     36 H2          -9.1030   -19.8080    11.0710 h1         1 ROJ       0.051700
     37 H3          -8.2210   -20.8380     8.3230 h1         1 ROJ       0.024700
     38 H4          -7.4300   -21.3300     9.8390 h1         1 ROJ       0.024700
     39 H5          -4.4460   -21.4550     6.0800 h1         1 ROJ       0.048700
     40 H6          -3.9420   -21.2080     4.3970 h1         1 ROJ       0.048700
     41 H7          -7.3980   -24.6740     4.7170 h2         1 ROJ       0.075700
     42 H8          -9.9320   -26.4430    11.0540 hn         1 ROJ       0.498500
     43 H9          -8.6830   -25.2390    11.0890 hn         1 ROJ       0.498500
     44 H10         -9.9610   -21.7690    12.4180 ho         1 ROJ       0.507000
     45 H11         -9.4270   -22.5550    10.3320 h1         1 ROJ       0.077700
     46 H12        -12.0890   -19.8810     8.4210 h1         1 ROJ       0.044700
     47 H13        -12.1120   -19.8930    10.2070 h1         1 ROJ       0.044700
     48 H16         -5.9570   -21.9740     3.5360 h1         1 ROJ       0.067700
     49 H17         -6.2300   -22.7340     7.7540 h5         1 ROJ       0.133800
     50 H18        -10.5940   -27.4790     6.7440 h5         1 ROJ       0.024100
     51 H19         -9.2070   -22.6260     5.2690 h1         1 ROJ       0.063700
     52 H20         -9.2490   -23.3760     3.1930 ho         1 ROJ       0.485000
     53 H21         -7.3790   -21.2560     6.1930 h1         1 ROJ       0.069700
     54 H22         -6.9730   -19.5860     4.5880 ho         1 ROJ       0.559000
     55 O1         -10.6900   -21.6940    11.7570 oh         1 ROJ      -0.743000
@<TRIPOS>BOND
     1     1     9 1   
     2     1    10 1   
     3     1    11 1   
     4     1    35 1   
     5     2     3 1   
     6     2     9 1   
     7     2    12 1   
     8     2    36 1   
     9     3    13 1   
    10     3    37 1   
    11     3    38 1   
    12     4    20 1   
    13     4    21 1   
    14     4    39 1   
    15     4    40 1   
    16     5    14 1   
    17     5    17 1   
    18     6     7 1   
    19     6    22 1   
    20     6    31 1   
    21     6    41 1   
    22     7    23 1   
    23     7    30 1   
    24     8    26 1   
    25     8    42 1   
    26     8    43 1   
    27     9    45 1   
    28     9    55 1   
    29    11    12 1   
    30    11    46 1   
    31    11    47 1   
    32    13    14 1   
    33    14    15 1   
    34    14    16 1   
    35    17    18 1   
    36    17    19 1   
    37    17    20 1   
    38    21    22 1   
    39    21    33 1   
    40    21    48 1   
    41    23    24 2   
    42    23    49 1   
    43    24    25 1   
    44    25    26 ar  
    45    25    30 ar  
    46    26    27 ar  
    47    27    28 ar  
    48    28    29 ar  
    49    28    50 1   
    50    29    30 ar  
    51    31    32 1   
    52    31    33 1   
    53    31    51 1   
    54    32    52 1   
    55    33    34 1   
    56    33    53 1   
    57    34    54 1   
    58    44    55 1   
@<TRIPOS>SUBSTRUCTURE
     1 ROJ         1 TEMP              0 ****  ****    0 ROOT
