@<TRIPOS>MOLECULE
ROJ
   55    58     1     0     0
SMALL
abcg2


@<TRIPOS>ATOM
      1 C2         -11.0420   -21.5440     9.2180 c5         1 ROJ       0.102300
      2 C4          -9.1690   -20.4160    10.2010 c5         1 ROJ       0.125300
      3 C5          -7.7930   -20.6340     9.6110 c3         1 ROJ       0.236600
      4 C6          -5.1490   -21.0050     5.5160 c3         1 ROJ       0.210600
      5 O6          -5.9960   -18.8750     7.5750 os         1 ROJ      -0.727800
      6 C8          -7.1680   -23.8800     5.2740 c5         1 ROJ       0.283300
      7 N1          -7.4080   -24.1930     6.6800 na         1 ROJ      -0.300300
      8 N3          -9.2880   -25.8450    10.5280 nv         1 ROJ      -1.079900
      9 C1          -9.9940   -21.7200    10.3120 c5         1 ROJ       0.116300
     10 CL1        -10.3810   -22.1270     7.6470 cl         1 ROJ      -0.266000
     11 C3         -11.2140   -20.0410     9.1960 c5         1 ROJ       0.152600
     12 O2          -9.9190   -19.5240     9.3890 os         1 ROJ      -0.403000
     13 O3          -7.0530   -19.4400     9.7290 os         1 ROJ      -0.580400
     14 P1          -5.5410   -19.3600     9.0880 p5         1 ROJ       1.471800
     15 O4          -4.8510   -18.2370     9.7900 o          1 ROJ      -0.849500
     16 O5          -4.9540   -20.7390     9.0250 o          1 ROJ      -0.849500
     17 P2          -4.9970   -18.4980     6.3230 p5         1 ROJ       1.458800
     18 O7          -3.5740   -18.7430     6.7140 o          1 ROJ      -0.838500
     19 O8          -5.4580   -17.2040     5.7420 o          1 ROJ      -0.838500
     20 O9          -5.4730   -19.6550     5.2420 os         1 ROJ      -0.612400
     21 C7          -6.1310   -21.8670     4.7480 c5         1 ROJ       0.107300
     22 O10         -5.9420   -23.2310     5.1350 os         1 ROJ      -0.451000
     23 C9          -6.8200   -23.6760     7.8020 cc         1 ROJ       0.467700
     24 N2          -7.3190   -24.1510     8.9080 nd         1 ROJ      -0.576100
     25 C10         -8.2930   -25.0200     8.5000 ca         1 ROJ      -0.080600
     26 C11         -9.2240   -25.8120     9.1960 ca         1 ROJ       0.438900
     27 N4         -10.0750   -26.5540     8.4790 nb         1 ROJ      -0.324000
     28 C12        -10.0180   -26.5050     7.1500 ca         1 ROJ       0.153900
     29 N5          -9.2080   -25.7910     6.3880 nb         1 ROJ      -0.224000
     30 C13         -8.3660   -25.0610     7.1180 ca         1 ROJ       0.097500
     31 C14         -8.2380   -22.9250     4.7210 c5         1 ROJ       0.119300
     32 O11         -8.3340   -23.0380     3.3290 oh         1 ROJ      -0.687000
     33 C15         -7.6040   -21.5820     5.0580 c5         1 ROJ       0.175300
     34 O12         -8.1800   -20.5400     4.3350 oh         1 ROJ      -0.715000
     35 H1         -11.9580   -22.1010     9.4020 h1         1 ROJ       0.077700
     36 H2          -9.0480   -19.9910    11.2080 h1         1 ROJ       0.051700
     37 H3          -7.8890   -20.9560     8.5680 h1         1 ROJ       0.024700
     38 H4          -7.3090   -21.4480    10.1590 h1         1 ROJ       0.024700
     39 H5          -5.2320   -21.2280     6.5830 h1         1 ROJ       0.048700
     40 H6          -4.1210   -21.2300     5.2100 h1         1 ROJ       0.048700
     41 H7          -7.1600   -24.8320     4.7360 h2         1 ROJ       0.075700
     42 H8          -9.9830   -26.4050    10.9910 hn         1 ROJ       0.498500
     43 H9          -8.6750   -25.2800    11.0910 hn         1 ROJ       0.498500
     44 H10        -10.0840   -21.7550    12.2530 ho         1 ROJ       0.507000
     45 H11         -9.3740   -22.6110    10.1530 h1         1 ROJ       0.077700
     46 H12        -11.6260   -19.6580     8.2620 h1         1 ROJ       0.044700
     47 H13        -11.8940   -19.7590    10.0100 h1         1 ROJ       0.044700
     48 H16         -5.9570   -21.7650     3.6700 h1         1 ROJ       0.067700
     49 H17         -6.0240   -22.9500     7.7600 h5         1 ROJ       0.133800
     50 H18        -10.7330   -27.1340     6.6300 h5         1 ROJ       0.024100
     51 H19         -9.2060   -23.0810     5.2100 h1         1 ROJ       0.063700
     52 H20         -8.7430   -23.8840     3.1190 ho         1 ROJ       0.485000
     53 H21         -7.7070   -21.4240     6.1440 h1         1 ROJ       0.069700
     54 H22         -7.6820   -19.7410     4.5430 ho         1 ROJ       0.559000
     55 O1         -10.7080   -21.8070    11.5210 oh         1 ROJ      -0.743000
@<TRIPOS>BOND
     1     1     9 1   
     2     1    10 1   
     3     1    11 1   
     4     1    35 1   
     5     2     3 1   
     6     2     9 1   
     7     2    12 1   
     8     2    36 1   
     9     3    13 1   
    10     3    37 1   
    11     3    38 1   
    12     4    20 1   
    13     4    21 1   
    14     4    39 1   
    15     4    40 1   
    16     5    14 1   
    17     5    17 1   
    18     6     7 1   
    19     6    22 1   
    20     6    31 1   
    21     6    41 1   
    22     7    23 1   
    23     7    30 1   
    24     8    26 1   
    25     8    42 1   
    26     8    43 1   
    27     9    45 1   
    28     9    55 1   
    29    11    12 1   
    30    11    46 1   
    31    11    47 1   
    32    13    14 1   
    33    14    15 1   
    34    14    16 1   
    35    17    18 1   
    36    17    19 1   
    37    17    20 1   
    38    21    22 1   
    39    21    33 1   
    40    21    48 1   
    41    23    24 2   
    42    23    49 1   
    43    24    25 1   
    44    25    26 ar  
    45    25    30 ar  
    46    26    27 ar  
    47    27    28 ar  
    48    28    29 ar  
    49    28    50 1   
    50    29    30 ar  
    51    31    32 1   
    52    31    33 1   
    53    31    51 1   
    54    32    52 1   
    55    33    34 1   
    56    33    53 1   
    57    34    54 1   
    58    44    55 1   
@<TRIPOS>SUBSTRUCTURE
     1 ROJ         1 TEMP              0 ****  ****    0 ROOT
