@<TRIPOS>MOLECULE
ROK
   30    30     1     0     0
SMALL
No Charge or Current Charge


@<TRIPOS>ATOM
      1 O7          39.3950    12.7390   -20.3090 o          1 ROK      -0.534000
      2 S2          39.0700    13.1160   -21.6890 sy         1 ROK       1.209300
      3 O6          39.7090    14.2640   -22.3410 o          1 ROK      -0.534000
      4 N5          39.4540    11.8050   -22.6490 ns         1 ROK      -0.594300
      5 C10         39.0740    10.5240   -22.4730 c          1 ROK       0.682100
      6 O13         38.3750    10.1320   -21.5570 o          1 ROK      -0.599100
      7 N12         39.5530     9.7080   -23.4630 ns         1 ROK      -0.511900
      8 C15         39.3530     8.2540   -23.5180 c3         1 ROK       0.124000
      9 C16         40.6290     7.4640   -23.1540 c3         1 ROK       0.040600
     10 S17         41.3540     7.8700   -21.4930 sh         1 ROK      -0.402800
     11 C1          37.2860    13.2900   -21.8370 ca         1 ROK      -0.374500
     12 C4          36.7400    14.0190   -22.9110 ca         1 ROK       0.052000
     13 C9          35.3460    14.1480   -23.0270 ca         1 ROK      -0.223500
     14 C11         34.5040    13.5540   -22.0820 ca         1 ROK       0.382000
     15 N14         33.1520    13.6850   -22.1990 nv         1 ROK      -1.100000
     16 C8          35.0440    12.8260   -21.0170 ca         1 ROK      -0.223500
     17 C3          36.4360    12.6880   -20.8890 ca         1 ROK       0.052000
     18 H5          40.0130    12.0720   -23.4390 hn         1 ROK       0.334500
     19 H12         40.1200    10.1390   -24.1800 hn         1 ROK       0.313500
     20 H151        38.5440     7.9640   -22.8340 h1         1 ROK       0.067200
     21 H152        39.0380     7.9810   -24.5340 h1         1 ROK       0.067200
     22 H161        40.4020     6.3900   -23.1770 h1         1 ROK       0.060200
     23 H162        41.3960     7.6590   -23.9140 h1         1 ROK       0.060200
     24 H17         42.4000     7.0100   -21.5710 hs         1 ROK       0.195800
     25 H4          37.3850    14.4850   -23.6560 ha         1 ROK       0.135500
     26 H3          36.8430    12.1130   -20.0580 ha         1 ROK       0.135500
     27 H9          34.9270    14.7110   -23.8560 ha         1 ROK       0.116000
     28 H141        32.5600    13.4230   -21.4130 hn         1 ROK       0.477000
     29 H142        32.7730    14.3700   -22.8510 hn         1 ROK       0.477000
     30 H8          34.3900    12.3610   -20.2850 ha         1 ROK       0.116000
@<TRIPOS>BOND
     1     1     2 2   
     2     2     3 2   
     3     2     4 1   
     4     2    11 1   
     5     4     5 1   
     6     4    18 1   
     7     5     6 2   
     8     5     7 1   
     9     7     8 1   
    10     7    19 1   
    11     8     9 1   
    12     8    20 1   
    13     8    21 1   
    14     9    10 1   
    15     9    22 1   
    16     9    23 1   
    17    10    24 1   
    18    11    12 ar  
    19    11    17 ar  
    20    12    13 ar  
    21    12    25 1   
    22    13    14 ar  
    23    13    27 1   
    24    14    15 1   
    25    14    16 ar  
    26    15    28 1   
    27    15    29 1   
    28    16    17 ar  
    29    16    30 1   
    30    17    26 1   
@<TRIPOS>SUBSTRUCTURE
     1 ROK         1 TEMP              0 ****  ****    0 ROOT
