@<TRIPOS>MOLECULE
ROK
   30    30     1     0     0
SMALL
bcc


@<TRIPOS>ATOM
      1 O7          39.4540    12.7580   -20.3180 o          1 ROK      -0.604800
      2 S2          39.0960    13.1380   -21.6700 sy         1 ROK       1.350900
      3 O6          39.6940    14.3240   -22.2630 o          1 ROK      -0.604800
      4 N5          39.5750    11.9230   -22.7160 ns         1 ROK      -0.661300
      5 C10         39.1540    10.6070   -22.5810 c          1 ROK       0.816100
      6 O13         38.4740    10.2530   -21.6360 o          1 ROK      -0.599100
      7 N12         39.5570     9.8080   -23.5860 ns         1 ROK      -0.578900
      8 C15         39.3000     8.3880   -23.6090 c3         1 ROK       0.124000
      9 C16         40.4720     7.5480   -23.1250 c3         1 ROK      -0.007300
     10 S17         40.8330     7.9090   -21.3740 sh         1 ROK      -0.354900
     11 C1          37.3590    13.2360   -21.8040 ca         1 ROK      -0.374500
     12 C4          36.7980    13.8730   -22.9100 ca         1 ROK       0.034000
     13 C9          35.4300    13.9570   -23.0360 ca         1 ROK      -0.241500
     14 C11         34.5820    13.4090   -22.0540 ca         1 ROK       0.243600
     15 N14         33.2360    13.4580   -22.1970 nv         1 ROK      -0.851200
     16 C8          35.1690    12.7790   -20.9420 ca         1 ROK      -0.241500
     17 C3          36.5380    12.6900   -20.8220 ca         1 ROK       0.034000
     18 H5          40.0170    12.2440   -23.5690 hn         1 ROK       0.334500
     19 H12         40.1630    10.1780   -24.3020 hn         1 ROK       0.313500
     20 H151        38.4080     8.1770   -23.0220 h1         1 ROK       0.067200
     21 H152        39.0800     8.0980   -24.6370 h1         1 ROK       0.067200
     22 H161        40.2200     6.4940   -23.2400 h1         1 ROK       0.060200
     23 H162        41.3560     7.7550   -23.7280 h1         1 ROK       0.060200
     24 H17         41.8860     7.0930   -21.2560 hs         1 ROK       0.195800
     25 H4          37.4220    14.3080   -23.6800 ha         1 ROK       0.153500
     26 H3          36.9620    12.2000   -19.9570 ha         1 ROK       0.153500
     27 H9          35.0010    14.4510   -23.8980 ha         1 ROK       0.134000
     28 H141        32.6520    13.2550   -21.4040 hn         1 ROK       0.421800
     29 H142        32.8390    14.0930   -22.8680 hn         1 ROK       0.421800
     30 H8          34.5380    12.3570   -20.1710 ha         1 ROK       0.134000
@<TRIPOS>BOND
     1     1     2 2   
     2     2     3 2   
     3     2     4 1   
     4     2    11 1   
     5     4     5 1   
     6     4    18 1   
     7     5     6 2   
     8     5     7 1   
     9     7     8 1   
    10     7    19 1   
    11     8     9 1   
    12     8    20 1   
    13     8    21 1   
    14     9    10 1   
    15     9    22 1   
    16     9    23 1   
    17    10    24 1   
    18    11    12 ar  
    19    11    17 ar  
    20    12    13 ar  
    21    12    25 1   
    22    13    14 ar  
    23    13    27 1   
    24    14    15 1   
    25    14    16 ar  
    26    15    28 1   
    27    15    29 1   
    28    16    17 ar  
    29    16    30 1   
    30    17    26 1   
@<TRIPOS>SUBSTRUCTURE
     1 ROK         1 TEMP              0 ****  ****    0 ROOT
