@<TRIPOS>MOLECULE
ROL
   41    43     1     0     0
SMALL
bcc


@<TRIPOS>ATOM
      1 C5           0.2820    -0.1450    -1.3140 ca         1 ROL      -0.078300
      2 C6          -0.2130    -0.2430    -0.0110 ca         1 ROL      -0.184000
      3 C7           0.6240    -0.1550     1.0920 ca         1 ROL       0.124100
      4 C8           2.0050     0.0430     0.8930 ca         1 ROL       0.111100
      5 C9           2.4960     0.1390    -0.3990 ca         1 ROL      -0.186000
      6 C10          1.6410     0.0450    -1.4940 ca         1 ROL      -0.123000
      7 C3          -0.6670    -0.2530    -2.4760 c5         1 ROL      -0.026400
      8 C2          -0.6690     0.9250    -3.4550 c5         1 ROL      -0.167400
      9 C1          -1.1150     0.3110    -4.7680 c          1 ROL       0.702500
     10 O1          -1.5020     0.9090    -5.7580 o          1 ROL      -0.628500
     11 N1          -0.9820    -1.0210    -4.6480 ns         1 ROL      -0.585900
     12 C4          -0.4030    -1.4570    -3.3960 c5         1 ROL       0.104000
     13 O3           0.2360    -0.2540     2.3770 os         1 ROL      -0.304900
     14 C11         -1.1360    -0.4700     2.6860 c5         1 ROL       0.143100
     15 C15         -1.2490    -0.8710     4.1720 c5         1 ROL      -0.093900
     16 C14         -2.1180     0.2010     4.8390 c5         1 ROL      -0.079900
     17 C13         -2.9830     0.7240     3.6950 c5         1 ROL      -0.079900
     18 C12         -2.0010     0.7920     2.5280 c5         1 ROL      -0.093900
     19 O2           2.7500     0.1210     2.0130 os         1 ROL      -0.296900
     20 C16          4.1460     0.2790     1.8720 c3         1 ROL       0.121700
     21 H61         -1.2760    -0.3930     0.1210 ha         1 ROL       0.137000
     22 H91          3.5530     0.2890    -0.5750 ha         1 ROL       0.138000
     23 H101         2.0620     0.1240    -2.4890 ha         1 ROL       0.131000
     24 H31         -1.6820    -0.3600    -2.0840 hc         1 ROL       0.061700
     25 H21         -1.3210     1.7430    -3.1500 hc         1 ROL       0.078700
     26 H22          0.3330     1.3420    -3.5980 hc         1 ROL       0.078700
     27 H1          -1.1160    -1.6440    -5.4290 hn         1 ROL       0.326500
     28 H41          0.6670    -1.6570    -3.5020 h1         1 ROL       0.047700
     29 H42         -0.8810    -2.3650    -3.0300 h1         1 ROL       0.047700
     30 H111        -1.5180    -1.2820     2.0580 h1         1 ROL       0.042700
     31 H151        -1.7310    -1.8470     4.2470 hc         1 ROL       0.056450
     32 H152        -0.2660    -0.9700     4.6330 hc         1 ROL       0.056450
     33 H141        -2.6980    -0.1910     5.6750 hc         1 ROL       0.046700
     34 H142        -1.4960     1.0110     5.2290 hc         1 ROL       0.046700
     35 H131        -3.7850     0.0140     3.4740 hc         1 ROL       0.046700
     36 H132        -3.4490     1.6870     3.9070 hc         1 ROL       0.046700
     37 H121        -1.3640     1.6750     2.6350 hc         1 ROL       0.056450
     38 H122        -2.4940     0.8610     1.5580 hc         1 ROL       0.056450
     39 H161         4.5600     0.2910     2.8780 h1         1 ROL       0.039367
     40 H162         4.5980    -0.5470     1.3160 h1         1 ROL       0.039367
     41 H163         4.4050     1.2180     1.3750 h1         1 ROL       0.039367
@<TRIPOS>BOND
     1     1     2 ar  
     2     1     6 ar  
     3     1     7 1   
     4     2     3 ar  
     5     2    21 1   
     6     3     4 ar  
     7     3    13 1   
     8     4     5 ar  
     9     4    19 1   
    10     5     6 ar  
    11     5    22 1   
    12     6    23 1   
    13     7     8 1   
    14     7    12 1   
    15     7    24 1   
    16     8     9 1   
    17     8    25 1   
    18     8    26 1   
    19     9    10 2   
    20     9    11 1   
    21    11    12 1   
    22    11    27 1   
    23    12    28 1   
    24    12    29 1   
    25    13    14 1   
    26    14    15 1   
    27    14    18 1   
    28    14    30 1   
    29    15    16 1   
    30    15    31 1   
    31    15    32 1   
    32    16    17 1   
    33    16    33 1   
    34    16    34 1   
    35    17    18 1   
    36    17    35 1   
    37    17    36 1   
    38    18    37 1   
    39    18    38 1   
    40    19    20 1   
    41    20    39 1   
    42    20    40 1   
    43    20    41 1   
@<TRIPOS>SUBSTRUCTURE
     1 ROL         1 TEMP              0 ****  ****    0 ROOT
