@<TRIPOS>MOLECULE
ROL
   41    43     1     0     0
SMALL
No Charge or Current Charge


@<TRIPOS>ATOM
      1 C5           0.1320    -0.4780    -1.4250 ca         1 ROL      -0.078300
      2 C6          -0.3660    -0.8930    -0.1740 ca         1 ROL      -0.166000
      3 C7           0.3600    -0.6630     1.0140 ca         1 ROL       0.124100
      4 C8           1.6310    -0.0470     0.9540 ca         1 ROL       0.111100
      5 C9           2.1360     0.3730    -0.2950 ca         1 ROL      -0.168000
      6 C10          1.3900     0.1640    -1.4680 ca         1 ROL      -0.105000
      7 C3          -0.7100    -0.7450    -2.6820 c5         1 ROL      -0.026400
      8 C2          -1.0310     0.5940    -3.3930 c5         1 ROL      -0.167400
      9 C1          -1.2900     0.1260    -4.8170 c          1 ROL       0.560000
     10 O1          -2.1870     0.4310    -5.5840 o          1 ROL      -0.553000
     11 N1          -0.4790    -0.9630    -5.0030 ns         1 ROL      -0.518900
     12 C4           0.1470    -1.4680    -3.7740 c5         1 ROL       0.104000
     13 O3          -0.1300    -1.0890     2.2390 os         1 ROL      -0.328100
     14 C11         -1.4090    -0.4530     2.5220 c5         1 ROL       0.166300
     15 C15         -1.9250    -1.0460     3.8740 c5         1 ROL      -0.093900
     16 C14         -1.6260     0.0670     4.9120 c5         1 ROL      -0.079900
     17 C13         -2.0000     1.3240     4.0940 c5         1 ROL      -0.079900
     18 C12         -1.1710     1.0700     2.8110 c5         1 ROL      -0.093900
     19 O2           2.3400     0.1380     2.1310 os         1 ROL      -0.320100
     20 C16          3.6300     0.7730     2.1630 c3         1 ROL       0.144900
     21 H61         -1.3200    -1.4110    -0.1300 ha         1 ROL       0.119000
     22 H91          3.1030     0.8600    -0.3790 ha         1 ROL       0.120000
     23 H101         1.8060     0.5010    -2.4140 ha         1 ROL       0.113000
     24 H31         -1.6290    -1.3080    -2.4750 hc         1 ROL       0.061700
     25 H21         -1.8800     1.1530    -2.9860 hc         1 ROL       0.078700
     26 H22         -0.1420     1.2310    -3.4180 hc         1 ROL       0.078700
     27 H1          -0.5780    -1.4890    -5.8640 hn         1 ROL       0.326500
     28 H41          1.2080    -1.1930    -3.7390 h1         1 ROL       0.047700
     29 H42          0.0780    -2.5600    -3.6830 h1         1 ROL       0.047700
     30 H111        -2.1350    -0.6330     1.7190 h1         1 ROL       0.042700
     31 H151        -3.0010    -1.2440     3.8160 hc         1 ROL       0.056450
     32 H152        -1.4440    -1.9960     4.1350 hc         1 ROL       0.056450
     33 H141        -2.2290    -0.0370     5.8220 hc         1 ROL       0.046700
     34 H142        -0.5710     0.0730     5.2130 hc         1 ROL       0.046700
     35 H131        -3.0760     1.3760     3.8860 hc         1 ROL       0.046700
     36 H132        -1.7140     2.2550     4.5990 hc         1 ROL       0.046700
     37 H121        -0.1120     1.2940     2.9880 hc         1 ROL       0.056450
     38 H122        -1.4980     1.7020     1.9770 hc         1 ROL       0.056450
     39 H161         4.0060     0.8160     3.1930 h1         1 ROL       0.039367
     40 H162         4.3550     0.2130     1.5590 h1         1 ROL       0.039367
     41 H163         3.5690     1.8000     1.7810 h1         1 ROL       0.039367
@<TRIPOS>BOND
     1     1     2 ar  
     2     1     6 ar  
     3     1     7 1   
     4     2     3 ar  
     5     2    21 1   
     6     3     4 ar  
     7     3    13 1   
     8     4     5 ar  
     9     4    19 1   
    10     5     6 ar  
    11     5    22 1   
    12     6    23 1   
    13     7     8 1   
    14     7    12 1   
    15     7    24 1   
    16     8     9 1   
    17     8    25 1   
    18     8    26 1   
    19     9    10 2   
    20     9    11 1   
    21    11    12 1   
    22    11    27 1   
    23    12    28 1   
    24    12    29 1   
    25    13    14 1   
    26    14    15 1   
    27    14    18 1   
    28    14    30 1   
    29    15    16 1   
    30    15    31 1   
    31    15    32 1   
    32    16    17 1   
    33    16    33 1   
    34    16    34 1   
    35    17    18 1   
    36    17    35 1   
    37    17    36 1   
    38    18    37 1   
    39    18    38 1   
    40    19    20 1   
    41    20    39 1   
    42    20    40 1   
    43    20    41 1   
@<TRIPOS>SUBSTRUCTURE
     1 ROL         1 TEMP              0 ****  ****    0 ROOT
