@<TRIPOS>MOLECULE
ROM
  105   112     1     0     0
SMALL
No Charge or Current Charge


@<TRIPOS>ATOM
      1 C1           0.0040    -3.6530    -4.4320 c6         1 ROM       0.366300
      2 C2           1.3860    -2.9570    -4.2810 c6         1 ROM       0.157300
      3 C3           2.4100    -3.6140    -5.2490 c6         1 ROM       0.133300
      4 C4           2.4450    -5.2340    -5.1410 c6         1 ROM       0.125500
      5 C5           0.9590    -5.8240    -5.0580 c6         1 ROM       0.217000
      6 O5           0.1630    -5.0490    -4.1300 os         1 ROM      -0.519000
      7 O2           1.3380    -1.5370    -4.5610 oh         1 ROM      -0.689000
      8 O3           2.1630    -3.1460    -6.6100 oh         1 ROM      -0.681000
      9 N4           3.3330    -5.7670    -6.2600 n3         1 ROM      -0.734600
     10 C6D          0.8930    -7.2480    -4.4190 c3         1 ROM      -0.104100
     11 O9          -0.9720    -3.0880    -3.5340 os         1 ROM      -0.406000
     12 C6B          0.1840    -5.8670    -6.4170 c3         1 ROM      -0.104100
     13 C4D          3.4180    -7.2460    -6.3540 c3         1 ROM       0.143100
     14 C4B          4.7110    -5.1990    -6.2310 c3         1 ROM       0.143100
     15 C'8         -4.5330     0.2090     3.0080 ca         1 ROM      -0.103000
     16 C'7         -4.4780     1.5770     3.3140 ca         1 ROM       0.135100
     17 C'6         -3.2870     2.1330     3.8170 ca         1 ROM      -0.161000
     18 C'5         -2.1560     1.3260     4.0120 ca         1 ROM       0.125100
     19 C15         -2.2180    -0.0510     3.7020 ca         1 ROM       0.043600
     20 C'9         -3.4090    -0.6340     3.1940 ca         1 ROM      -0.134600
     21 O'4         -1.0190     1.9560     4.5130 os         1 ROM      -0.234200
     22 C'3          0.0940     1.1430     4.6980 cc         1 ROM      -0.013100
     23 C'2          0.1170    -0.3270     4.3940 c          1 ROM       0.561200
     24 N'1         -1.0610    -0.8010     3.9150 ns         1 ROM      -0.396100
     25 C1B          1.2130     1.7470     5.1860 c2         1 ROM      -0.273000
     26 O'2          1.0780    -1.0670     4.5480 o          1 ROM      -0.513000
     27 O13         -4.7280    -2.4810     2.3560 os         1 ROM      -0.440100
     28 C7X         -5.6730     3.7390     3.3840 c3         1 ROM       0.145900
     29 C27         -4.0210    -3.0450    -0.3640 ca         1 ROM      -0.079000
     30 C26         -3.4780    -3.3850    -1.6070 ca         1 ROM       0.001200
     31 C7          -3.1730    -4.6890    -1.9590 ca         1 ROM      -0.125300
     32 C6          -3.2410    -5.7010    -0.9900 ca         1 ROM      -0.083000
     33 C29         -3.7470    -5.3890     0.2840 ca         1 ROM      -0.091000
     34 C28         -4.1840    -4.0770     0.5920 ca         1 ROM      -0.106300
     35 C25         -3.2310    -2.5900    -2.7930 ce         1 ROM      -0.093400
     36 C12         -3.7860    -1.4960    -3.3690 cf         1 ROM      -0.129000
     37 C9          -2.3740    -3.3470    -3.8100 c5         1 ROM       0.229400
     38 C8          -2.8280    -4.8470    -3.4680 c5         1 ROM       0.230600
     39 C13         -4.9160    -3.8410     1.9160 c3         1 ROM       0.222600
     40 C10         -2.8050    -2.6110    -5.0850 c2         1 ROM      -0.217200
     41 C11         -3.5180    -1.5080    -4.7830 cf         1 ROM      -0.170000
     42 C14         -6.4370    -4.0790     1.7490 c3         1 ROM       0.163600
     43 O15         -6.6370    -5.4180     1.2380 os         1 ROM      -0.427100
     44 C16         -7.9060    -5.8090     0.9080 c          1 ROM       0.616100
     45 C17         -7.9430    -7.2300     0.3510 c3         1 ROM      -0.170400
     46 C18         -8.2930    -7.2220    -1.1450 c3         1 ROM       0.186600
     47 C20         -6.0460    -7.5350    -2.3620 ca         1 ROM      -0.136000
     48 C21         -5.0090    -7.0350    -3.1720 ca         1 ROM       0.120000
     49 C22         -5.0350    -5.6910    -3.6090 ca         1 ROM       0.154100
     50 C23         -6.1630    -4.8890    -3.3060 ca         1 ROM       0.161100
     51 C24         -7.2030    -5.4050    -2.5130 ca         1 ROM      -0.177000
     52 C19         -7.1480    -6.7200    -2.0170 ca         1 ROM      -0.142300
     53 O25         -3.9820    -5.1500    -4.3360 os         1 ROM      -0.334100
     54 N18         -8.6620    -8.5890    -1.6050 nz         1 ROM      -0.972000
     55 O23         -6.2600    -3.6060    -3.7740 oh         1 ROM      -0.478100
     56 Cl21        -3.6840    -8.1130    -3.6210 cl         1 ROM      -0.143000
     57 O16         -8.9020    -5.1170     1.0580 o          1 ROM      -0.470000
     58 H1          -0.3490    -3.5190    -5.4640 h2         1 ROM       0.045700
     59 H2           1.7270    -3.1280    -3.2490 h1         1 ROM       0.091700
     60 H3           3.3900    -3.1980    -4.9330 h1         1 ROM       0.055700
     61 H4           2.9230    -5.4690    -4.1780 h1         1 ROM       0.045700
     62 H2'2         1.5480    -1.4920    -5.5270 ho         1 ROM       0.519000
     63 H3'2         2.5370    -3.8680    -7.1720 ho         1 ROM       0.481000
     64 H6B1        -0.1220    -7.4760    -4.0710 hc         1 ROM       0.048700
     65 H6B3         1.1590    -8.0490    -5.1130 hc         1 ROM       0.048700
     66 H6B2         1.5580    -7.3240    -3.5500 hc         1 ROM       0.048700
     67 H6A1         0.5710    -6.6460    -7.0810 hc         1 ROM       0.048700
     68 H6A3        -0.8800    -6.0830    -6.2570 hc         1 ROM       0.048700
     69 H6A2         0.2490    -4.9260    -6.9710 hc         1 ROM       0.048700
     70 H4B1         2.4820    -7.6780    -6.7230 h1         1 ROM       0.039200
     71 H4B3         3.6630    -7.6910    -5.3810 h1         1 ROM       0.039200
     72 H4B2         4.1940    -7.5500    -7.0700 h1         1 ROM       0.039200
     73 H4A1         4.7160    -4.1150    -6.3980 h1         1 ROM       0.039200
     74 H4A3         5.3330    -5.6400    -7.0220 h1         1 ROM       0.039200
     75 H4A2         5.1920    -5.4030    -5.2650 h1         1 ROM       0.039200
     76 H'8         -5.4680    -0.1870     2.6210 ha         1 ROM       0.141000
     77 H'6         -3.2160     3.1870     4.0630 ha         1 ROM       0.146000
     78 H'1         -1.0960    -1.7910     3.6950 hn         1 ROM       0.367500
     79 H3A1         1.2090     2.8130     5.4110 ha         1 ROM       0.200000
     80 H3A2         2.1290     1.1810     5.3610 ha         1 ROM       0.200000
     81 H7A1        -4.9370     4.2860     2.7810 h1         1 ROM       0.048033
     82 H7A3        -5.4760     3.9350     4.4460 h1         1 ROM       0.048033
     83 H7A2        -6.6680     4.1350     3.1450 h1         1 ROM       0.048033
     84 H9          -4.3390    -2.0250    -0.1640 ha         1 ROM       0.133000
     85 H6          -2.9570    -6.7230    -1.2260 ha         1 ROM       0.123000
     86 H5          -3.8590    -6.1850     1.0160 ha         1 ROM       0.118000
     87 H12         -4.5480    -0.8670    -2.9040 ha         1 ROM       0.197000
     88 H8          -2.0520    -5.6010    -3.6300 h1         1 ROM       0.109700
     89 H13         -4.5480    -4.5460     2.6740 h1         1 ROM       0.085700
     90 H10         -2.5320    -2.8960    -6.1010 ha         1 ROM       0.211000
     91 H11         -3.9410    -0.7960    -5.4970 ha         1 ROM       0.200000
     92 H142        -6.9370    -3.9480     2.7170 h1         1 ROM       0.077700
     93 H141        -6.8370    -3.3330     1.0490 h1         1 ROM       0.077700
     94 H172        -6.9740    -7.7190     0.5000 hc         1 ROM       0.093700
     95 H171        -8.7240    -7.7750     0.8920 hc         1 ROM       0.093700
     96 H18         -9.1670    -6.5720    -1.2850 hx         1 ROM       0.121700
     97 H20         -5.9820    -8.5590    -2.0060 ha         1 ROM       0.112000
     98 H24         -8.0590    -4.7770    -2.2710 ha         1 ROM       0.137000
     99 H183        -8.8290    -8.6250    -2.6220 hn         1 ROM       0.511667
    100 H182        -9.5250    -8.9460    -1.1690 hn         1 ROM       0.511667
    101 H184        -7.9370    -9.2930    -1.4140 hn         1 ROM       0.511667
    102 H232        -7.1130    -3.2270    -3.4800 ho         1 ROM       0.475000
    103 C1A         -3.5010    -2.1110     2.8480 c          1 ROM       0.625700
    104 O'7         -5.6180     2.3280     3.1040 os         1 ROM      -0.339100
    105 O11         -2.5750    -2.9000     2.9980 o          1 ROM      -0.486000
@<TRIPOS>BOND
     1     1     2 1   
     2     1     6 1   
     3     1    11 1   
     4     1    58 1   
     5     2     3 1   
     6     2     7 1   
     7     2    59 1   
     8     3     4 1   
     9     3     8 1   
    10     3    60 1   
    11     4     5 1   
    12     4     9 1   
    13     4    61 1   
    14     5     6 1   
    15     5    10 1   
    16     5    12 1   
    17     7    62 1   
    18     8    63 1   
    19     9    13 1   
    20     9    14 1   
    21    10    64 1   
    22    10    65 1   
    23    10    66 1   
    24    11    37 1   
    25    12    67 1   
    26    12    68 1   
    27    12    69 1   
    28    13    70 1   
    29    13    71 1   
    30    13    72 1   
    31    14    73 1   
    32    14    74 1   
    33    14    75 1   
    34    15    16 ar  
    35    15    20 ar  
    36    15    76 1   
    37    16    17 ar  
    38    16   104 1   
    39    17    18 ar  
    40    17    77 1   
    41    18    19 ar  
    42    18    21 1   
    43    19    20 ar  
    44    19    24 1   
    45    20   103 1   
    46    21    22 1   
    47    22    23 1   
    48    22    25 2   
    49    23    24 1   
    50    23    26 2   
    51    24    78 1   
    52    25    79 1   
    53    25    80 1   
    54    27    39 1   
    55    27   103 1   
    56    28    81 1   
    57    28    82 1   
    58    28    83 1   
    59    28   104 1   
    60    29    30 ar  
    61    29    34 ar  
    62    29    84 1   
    63    30    31 ar  
    64    30    35 1   
    65    31    32 ar  
    66    31    38 1   
    67    32    33 ar  
    68    32    85 1   
    69    33    34 ar  
    70    33    86 1   
    71    34    39 1   
    72    35    36 2   
    73    35    37 1   
    74    36    41 1   
    75    36    87 1   
    76    37    38 1   
    77    37    40 1   
    78    38    53 1   
    79    38    88 1   
    80    39    42 1   
    81    39    89 1   
    82    40    41 2   
    83    40    90 1   
    84    41    91 1   
    85    42    43 1   
    86    42    92 1   
    87    42    93 1   
    88    43    44 1   
    89    44    45 1   
    90    44    57 2   
    91    45    46 1   
    92    45    94 1   
    93    45    95 1   
    94    46    52 1   
    95    46    54 1   
    96    46    96 1   
    97    47    48 ar  
    98    47    52 ar  
    99    47    97 1   
   100    48    49 ar  
   101    48    56 1   
   102    49    50 ar  
   103    49    53 1   
   104    50    51 ar  
   105    50    55 1   
   106    51    52 ar  
   107    51    98 1   
   108    54    99 1   
   109    54   100 1   
   110    54   101 1   
   111    55   102 1   
   112   103   105 2   
@<TRIPOS>SUBSTRUCTURE
     1 ROM         1 TEMP              0 ****  ****    0 ROOT
