@<TRIPOS>MOLECULE
ROM
  105   112     1     0     0
SMALL
abcg2


@<TRIPOS>ATOM
      1 C1          -0.0760    -3.7360    -4.1080 c6         1 ROM       0.366300
      2 C2           1.2200    -3.5570    -3.3400 c6         1 ROM       0.157300
      3 C3           2.3970    -3.8610    -4.2570 c6         1 ROM       0.133300
      4 C4           2.2720    -5.1940    -5.0300 c6         1 ROM       0.125500
      5 C5           0.8440    -5.3810    -5.6400 c6         1 ROM       0.217000
      6 O5          -0.0950    -5.0390    -4.6140 os         1 ROM      -0.519000
      7 O2           1.3440    -2.2940    -2.7420 oh         1 ROM      -0.689000
      8 O3           2.5500    -2.7760    -5.1460 oh         1 ROM      -0.681000
      9 N4           3.3820    -5.2160    -5.9930 n3         1 ROM      -0.734600
     10 C6D          0.5040    -6.8500    -5.8890 c3         1 ROM      -0.104100
     11 O9          -1.1300    -3.5980    -3.2170 os         1 ROM      -0.406000
     12 C6B          0.5740    -4.5570    -6.8990 c3         1 ROM      -0.104100
     13 C4D          3.3980    -6.3290    -6.9280 c3         1 ROM       0.143100
     14 C4B          4.6780    -5.1750    -5.3200 c3         1 ROM       0.143100
     15 C'8         -4.4490     0.2180     2.7590 ca         1 ROM      -0.103000
     16 C'7         -4.3350     1.5860     2.9690 ca         1 ROM       0.135100
     17 C'6         -3.1070     2.1200     3.3470 ca         1 ROM      -0.161000
     18 C'5         -2.0230     1.2780     3.5150 ca         1 ROM       0.125100
     19 C15         -2.1150    -0.0940     3.3170 ca         1 ROM       0.043600
     20 C'9         -3.3550    -0.6260     2.9290 ca         1 ROM      -0.134600
     21 O'4         -0.8570     1.8530     3.8830 os         1 ROM      -0.234200
     22 C'3          0.2790     1.1220     4.0670 cc         1 ROM      -0.013100
     23 C'2          0.2290    -0.3540     3.8730 c          1 ROM       0.561200
     24 N'1         -0.9720    -0.8550     3.5120 ns         1 ROM      -0.396100
     25 C1B          1.4020     1.7390     4.4170 c2         1 ROM      -0.273000
     26 O'2          1.2100    -1.0540     4.0310 o          1 ROM      -0.513000
     27 O13         -4.7110    -2.4190     2.2870 os         1 ROM      -0.440100
     28 C7X         -5.3810     3.7150     2.9950 c3         1 ROM       0.145900
     29 C27         -4.1550    -3.2170    -0.4050 ca         1 ROM      -0.079000
     30 C26         -3.6080    -3.6250    -1.6130 ca         1 ROM       0.001200
     31 C7          -3.2110    -4.9590    -1.8000 ca         1 ROM      -0.125300
     32 C6          -3.2520    -5.8550    -0.7510 ca         1 ROM      -0.083000
     33 C29         -3.7670    -5.4350     0.4680 ca         1 ROM      -0.091000
     34 C28         -4.2480    -4.1390     0.6340 ca         1 ROM      -0.106300
     35 C25         -3.3730    -2.9270    -2.8560 ce         1 ROM      -0.093400
     36 C12         -3.9380    -1.9840    -3.6150 cf         1 ROM      -0.129000
     37 C9          -2.4530    -3.7930    -3.7010 c5         1 ROM       0.229400
     38 C8          -2.8860    -5.2080    -3.2550 c5         1 ROM       0.230600
     39 C13         -4.9380    -3.7810     1.9240 c3         1 ROM       0.222600
     40 C10         -2.6920    -3.2660    -5.0890 c2         1 ROM      -0.217200
     41 C11         -3.4940    -2.1960    -5.0010 cf         1 ROM      -0.170000
     42 C14         -6.4540    -3.8840     1.7840 c3         1 ROM       0.163600
     43 O15         -6.7280    -5.2520     1.4890 os         1 ROM      -0.427100
     44 C16         -7.8470    -5.5550     0.8530 c          1 ROM       0.616100
     45 C17         -7.9760    -7.0400     0.6060 c3         1 ROM      -0.170400
     46 C18         -8.3900    -7.2990    -0.8420 c3         1 ROM       0.186600
     47 C20         -6.2070    -7.7840    -2.0210 ca         1 ROM      -0.136000
     48 C21         -5.1590    -7.3330    -2.8080 ca         1 ROM       0.120000
     49 C22         -5.1300    -6.0530    -3.3430 ca         1 ROM       0.154100
     50 C23         -6.2620    -5.2430    -3.1770 ca         1 ROM       0.161100
     51 C24         -7.3320    -5.6980    -2.4170 ca         1 ROM      -0.177000
     52 C19         -7.2900    -6.9440    -1.8080 ca         1 ROM      -0.142300
     53 O25         -4.0620    -5.5690    -4.0130 os         1 ROM      -0.334100
     54 N18         -8.7970    -8.7250    -0.9860 nz         1 ROM      -0.972000
     55 O23         -6.2500    -4.0470    -3.7700 oh         1 ROM      -0.478100
     56 CL21        -3.8170    -8.3790    -3.1060 cl         1 ROM      -0.143000
     57 O16         -8.6810    -4.7520     0.5240 o          1 ROM      -0.470000
     58 H1          -0.1590    -2.9940    -4.9180 h2         1 ROM       0.045700
     59 H2           1.2230    -4.2930    -2.5280 h1         1 ROM       0.091700
     60 H3           3.2760    -3.9370    -3.6030 h1         1 ROM       0.055700
     61 H4           2.3920    -6.0010    -4.2860 h1         1 ROM       0.045700
     62 H2'2         1.4880    -1.6400    -3.4360 ho         1 ROM       0.519000
     63 H3'2         2.9950    -3.1320    -5.9310 ho         1 ROM       0.481000
     64 H6B1        -0.5560    -6.9370    -6.1320 hc         1 ROM       0.048700
     65 H6B3         1.0620    -7.2780    -6.7140 hc         1 ROM       0.048700
     66 H6B2         0.7000    -7.4510    -5.0000 hc         1 ROM       0.048700
     67 H6A1         1.1640    -4.9120    -7.7420 hc         1 ROM       0.048700
     68 H6A3        -0.4740    -4.6610    -7.1840 hc         1 ROM       0.048700
     69 H6A2         0.7930    -3.4990    -6.7800 hc         1 ROM       0.048700
     70 H4B1         2.5530    -6.3040    -7.6070 h1         1 ROM       0.039200
     71 H4B3         3.4170    -7.3110    -6.4370 h1         1 ROM       0.039200
     72 H4B2         4.2920    -6.2520    -7.5460 h1         1 ROM       0.039200
     73 H4A1         4.8510    -4.2280    -4.8130 h1         1 ROM       0.039200
     74 H4A3         5.4660    -5.2770    -6.0640 h1         1 ROM       0.039200
     75 H4A2         4.8030    -5.9820    -4.5840 h1         1 ROM       0.039200
     76 H'8         -5.4080    -0.1810     2.4580 ha         1 ROM       0.141000
     77 H'6         -2.9630     3.1790     3.5140 ha         1 ROM       0.146000
     78 H'1         -1.0500    -1.8560     3.3720 hn         1 ROM       0.367500
     79 H3A1         1.4380     2.8100     4.5560 ha         1 ROM       0.200000
     80 H3A2         2.3070     1.1730     4.5680 ha         1 ROM       0.200000
     81 H7A1        -4.6760     4.1970     2.3140 h1         1 ROM       0.048033
     82 H7A3        -5.1050     3.9580     4.0240 h1         1 ROM       0.048033
     83 H7A2        -6.3770     4.1020     2.7980 h1         1 ROM       0.048033
     84 H9          -4.4960    -2.1960    -0.2810 ha         1 ROM       0.133000
     85 H6          -2.9090    -6.8750    -0.8690 ha         1 ROM       0.123000
     86 H5          -3.8150    -6.1320     1.2960 ha         1 ROM       0.118000
     87 H12         -4.6840    -1.2620    -3.3170 ha         1 ROM       0.197000
     88 H8          -2.1180    -5.9630    -3.4210 h1         1 ROM       0.109700
     89 H13         -4.6020    -4.4400     2.7300 h1         1 ROM       0.085700
     90 H10         -2.2310    -3.6400    -5.9910 ha         1 ROM       0.211000
     91 H11         -3.8150    -1.5830    -5.8320 ha         1 ROM       0.200000
     92 H142        -6.9490    -3.6040     2.7170 h1         1 ROM       0.077700
     93 H141        -6.8100    -3.2290     0.9860 h1         1 ROM       0.077700
     94 H172        -7.0470    -7.5610     0.8430 hc         1 ROM       0.093700
     95 H171        -8.7480    -7.4110     1.2870 hc         1 ROM       0.093700
     96 H18         -9.2880    -6.7290    -1.0780 hx         1 ROM       0.121700
     97 H20         -6.1390    -8.7680    -1.5750 ha         1 ROM       0.112000
     98 H24         -8.1940    -5.0550    -2.2800 ha         1 ROM       0.137000
     99 H183        -9.0850    -8.9340    -1.9430 hn         1 ROM       0.511667
    100 H182        -9.5930    -8.9450    -0.3860 hn         1 ROM       0.511667
    101 H184        -8.0610    -9.3880    -0.7410 hn         1 ROM       0.511667
    102 H232        -7.0310    -3.5400    -3.5230 ho         1 ROM       0.475000
    103 C1A         -3.4930    -2.0790     2.6870 c          1 ROM       0.625700
    104 O'7         -5.4470     2.3170     2.7840 os         1 ROM      -0.339100
    105 O11         -2.6030    -2.8860     2.8250 o          1 ROM      -0.486000
@<TRIPOS>BOND
     1     1     2 1   
     2     1     6 1   
     3     1    11 1   
     4     1    58 1   
     5     2     3 1   
     6     2     7 1   
     7     2    59 1   
     8     3     4 1   
     9     3     8 1   
    10     3    60 1   
    11     4     5 1   
    12     4     9 1   
    13     4    61 1   
    14     5     6 1   
    15     5    10 1   
    16     5    12 1   
    17     7    62 1   
    18     8    63 1   
    19     9    13 1   
    20     9    14 1   
    21    10    64 1   
    22    10    65 1   
    23    10    66 1   
    24    11    37 1   
    25    12    67 1   
    26    12    68 1   
    27    12    69 1   
    28    13    70 1   
    29    13    71 1   
    30    13    72 1   
    31    14    73 1   
    32    14    74 1   
    33    14    75 1   
    34    15    16 ar  
    35    15    20 ar  
    36    15    76 1   
    37    16    17 ar  
    38    16   104 1   
    39    17    18 ar  
    40    17    77 1   
    41    18    19 ar  
    42    18    21 1   
    43    19    20 ar  
    44    19    24 1   
    45    20   103 1   
    46    21    22 1   
    47    22    23 1   
    48    22    25 2   
    49    23    24 1   
    50    23    26 2   
    51    24    78 1   
    52    25    79 1   
    53    25    80 1   
    54    27    39 1   
    55    27   103 1   
    56    28    81 1   
    57    28    82 1   
    58    28    83 1   
    59    28   104 1   
    60    29    30 ar  
    61    29    34 ar  
    62    29    84 1   
    63    30    31 ar  
    64    30    35 1   
    65    31    32 ar  
    66    31    38 1   
    67    32    33 ar  
    68    32    85 1   
    69    33    34 ar  
    70    33    86 1   
    71    34    39 1   
    72    35    36 2   
    73    35    37 1   
    74    36    41 1   
    75    36    87 1   
    76    37    38 1   
    77    37    40 1   
    78    38    53 1   
    79    38    88 1   
    80    39    42 1   
    81    39    89 1   
    82    40    41 2   
    83    40    90 1   
    84    41    91 1   
    85    42    43 1   
    86    42    92 1   
    87    42    93 1   
    88    43    44 1   
    89    44    45 1   
    90    44    57 2   
    91    45    46 1   
    92    45    94 1   
    93    45    95 1   
    94    46    52 1   
    95    46    54 1   
    96    46    96 1   
    97    47    48 ar  
    98    47    52 ar  
    99    47    97 1   
   100    48    49 ar  
   101    48    56 1   
   102    49    50 ar  
   103    49    53 1   
   104    50    51 ar  
   105    50    55 1   
   106    51    52 ar  
   107    51    98 1   
   108    54    99 1   
   109    54   100 1   
   110    54   101 1   
   111    55   102 1   
   112   103   105 2   
@<TRIPOS>SUBSTRUCTURE
     1 ROM         1 TEMP              0 ****  ****    0 ROOT
