@<TRIPOS>MOLECULE
ROO
   37    40     1     0     0
SMALL
No Charge or Current Charge


@<TRIPOS>ATOM
      1 C18        -41.7070   -34.7300    -5.8860 cp         1 ROO      -0.032000
      2 C16        -40.8410   -33.0760    -7.4380 ca         1 ROO      -0.137000
      3 C17        -41.7370   -33.4140    -6.3980 ca         1 ROO      -0.071000
      4 C15        -39.9340   -34.0330    -7.9550 ca         1 ROO      -0.101000
      5 C14        -39.9090   -35.3470    -7.4410 ca         1 ROO      -0.134000
      6 C13        -40.8070   -35.6490    -6.4140 ca         1 ROO      -0.020200
      7 C11        -42.0250   -36.7390    -4.7480 ca         1 ROO       0.204500
      8 C20        -43.9450   -33.5870    -0.5480 cc         1 ROO      -0.084000
      9 C19        -42.4700   -35.4160    -4.8380 cp         1 ROO      -0.264000
     10 C02        -42.6570   -31.7830    -0.3750 cd         1 ROO       0.151300
     11 C04        -44.0420   -32.8400    -1.6880 cd         1 ROO       0.010300
     12 C05        -44.8540   -33.0900    -2.9390 c3         1 ROO       0.216500
     13 C07        -43.4960   -35.0120    -3.9630 ca         1 ROO       0.441900
     14 C09        -43.5200   -37.1420    -3.0830 ca         1 ROO       0.190900
     15 C21        -43.0490   -32.9090     0.3080 cc         1 ROO      -0.185600
     16 C22        -42.6340   -33.3490     1.6610 c          1 ROO       0.726600
     17 N06        -44.0060   -33.7200    -3.9720 nu         1 ROO      -0.909100
     18 N08        -44.0260   -35.8860    -3.0830 nb         1 ROO      -0.270000
     19 N10        -42.5350   -37.6220    -3.8770 nb         1 ROO      -0.260000
     20 N12        -41.0190   -36.8440    -5.7150 na         1 ROO      -0.339300
     21 O03        -43.2570   -31.7090    -1.6130 os         1 ROO      -0.310000
     22 O23        -41.8480   -32.6690     2.3020 o          1 ROO      -0.728000
     23 O24        -43.1010   -34.3920     2.0970 o          1 ROO      -0.728000
     24 H161       -40.8480   -32.0680    -7.8460 ha         1 ROO       0.108000
     25 H171       -42.4270   -32.6700    -6.0160 ha         1 ROO       0.112000
     26 H151       -39.2520   -33.7540    -8.7550 ha         1 ROO       0.105000
     27 H141       -39.2200   -36.0930    -7.8280 ha         1 ROO       0.110000
     28 H201       -44.4500   -34.5240    -0.3320 ha         1 ROO       0.146000
     29 H013       -40.7110   -31.0580     0.2030 hc         1 ROO       0.048367
     30 H011       -41.6370   -29.9240    -0.7920 hc         1 ROO       0.048367
     31 H012       -42.0650   -30.1560     0.9100 hc         1 ROO       0.048367
     32 H051       -45.2420   -32.1280    -3.3030 h1         1 ROO       0.063700
     33 H052       -45.7180   -33.7260    -2.6990 h1         1 ROO       0.063700
     34 H091       -43.9520   -37.8400    -2.3680 h5         1 ROO       0.045100
     35 H061       -43.5130   -33.0880    -4.5950 hn         1 ROO       0.489000
     36 H121       -40.5030   -37.6980    -5.8850 hn         1 ROO       0.359000
     37 C01        -41.7170   -30.6710     0.0080 c3         1 ROO      -0.117400
@<TRIPOS>BOND
     1     1     3 ar  
     2     1     6 ar  
     3     1     9 1   
     4     2     3 ar  
     5     2     4 ar  
     6     2    24 1   
     7     3    25 1   
     8     4     5 ar  
     9     4    26 1   
    10     5     6 ar  
    11     5    27 1   
    12     6    20 1   
    13     7     9 ar  
    14     7    19 ar  
    15     7    20 1   
    16     8    11 2   
    17     8    15 1   
    18     8    28 1   
    19     9    13 ar  
    20    10    15 2   
    21    10    21 1   
    22    10    37 1   
    23    11    12 1   
    24    11    21 1   
    25    12    17 1   
    26    12    32 1   
    27    12    33 1   
    28    13    17 1   
    29    13    18 ar  
    30    14    18 ar  
    31    14    19 ar  
    32    14    34 1   
    33    15    16 1   
    34    16    22 1   
    35    16    23 1   
    36    17    35 1   
    37    20    36 1   
    38    29    37 1   
    39    30    37 1   
    40    31    37 1   
@<TRIPOS>SUBSTRUCTURE
     1 ROO         1 TEMP              0 ****  ****    0 ROOT
