@<TRIPOS>MOLECULE
ROO
   37    40     1     0     0
SMALL
abcg2


@<TRIPOS>ATOM
      1 C18        -41.6480   -34.6830    -5.9070 cp         1 ROO      -0.032000
      2 C16        -40.6010   -33.0990    -7.3790 ca         1 ROO      -0.137000
      3 C17        -41.5280   -33.3740    -6.3820 ca         1 ROO      -0.071000
      4 C15        -39.7920   -34.1100    -7.9120 ca         1 ROO      -0.101000
      5 C14        -39.8890   -35.4210    -7.4620 ca         1 ROO      -0.134000
      6 C13        -40.8160   -35.6930    -6.4640 ca         1 ROO      -0.020200
      7 C11        -42.0930   -36.7040    -4.9180 ca         1 ROO       0.204500
      8 C20        -44.0460   -33.5500    -0.3410 cc         1 ROO      -0.084000
      9 C19        -42.4620   -35.3450    -4.9140 cp         1 ROO      -0.264000
     10 C02        -42.6960   -31.7600    -0.3400 cd         1 ROO       0.151300
     11 C04        -44.1090   -32.9650    -1.5580 cd         1 ROO       0.010300
     12 C05        -44.8250   -33.2740    -2.8250 c3         1 ROO       0.216500
     13 C07        -43.4700   -34.9890    -3.9960 ca         1 ROO       0.441900
     14 C09        -43.5600   -37.1890    -3.3170 ca         1 ROO       0.190900
     15 C21        -43.1330   -32.7770     0.4630 cc         1 ROO      -0.185600
     16 C22        -42.7700   -33.0690     1.8950 c          1 ROO       0.726600
     17 N06        -43.9440   -33.7260    -3.8990 nu         1 ROO      -0.909100
     18 N08        -44.0040   -35.9380    -3.2000 nb         1 ROO      -0.270000
     19 N10        -42.6190   -37.6550    -4.1360 nb         1 ROO      -0.260000
     20 N12        -41.1100   -36.8980    -5.8470 na         1 ROO      -0.339300
     21 O03        -43.2860   -31.8620    -1.5720 os         1 ROO      -0.310000
     22 O23        -41.8880   -32.3530     2.4410 o          1 ROO      -0.728000
     23 O24        -43.3860   -34.0230     2.4410 o          1 ROO      -0.728000
     24 H161       -40.5030   -32.0870    -7.7510 ha         1 ROO       0.108000
     25 H171       -42.1430   -32.5740    -5.9920 ha         1 ROO       0.112000
     26 H151       -39.0780   -33.8680    -8.6890 ha         1 ROO       0.105000
     27 H141       -39.2650   -36.2060    -7.8710 ha         1 ROO       0.110000
     28 H201       -44.5740   -34.4370    -0.0320 ha         1 ROO       0.146000
     29 H013       -40.9450   -30.6670    -0.8760 hc         1 ROO       0.048367
     30 H011       -42.2890   -29.6670    -0.3230 hc         1 ROO       0.048367
     31 H012       -41.3730   -30.6410     0.8490 hc         1 ROO       0.048367
     32 H051       -45.3430   -32.3860    -3.1930 h1         1 ROO       0.063700
     33 H052       -45.5670   -34.0440    -2.6290 h1         1 ROO       0.063700
     34 H091       -44.0230   -37.9170    -2.6580 h5         1 ROO       0.045100
     35 H061       -43.4530   -33.0080    -4.4040 hn         1 ROO       0.489000
     36 H121       -40.6710   -37.7840    -6.0430 hn         1 ROO       0.359000
     37 C01        -41.7720   -30.6160    -0.1610 c3         1 ROO      -0.117400
@<TRIPOS>BOND
     1     1     3 ar  
     2     1     6 ar  
     3     1     9 1   
     4     2     3 ar  
     5     2     4 ar  
     6     2    24 1   
     7     3    25 1   
     8     4     5 ar  
     9     4    26 1   
    10     5     6 ar  
    11     5    27 1   
    12     6    20 1   
    13     7     9 ar  
    14     7    19 ar  
    15     7    20 1   
    16     8    11 2   
    17     8    15 1   
    18     8    28 1   
    19     9    13 ar  
    20    10    15 2   
    21    10    21 1   
    22    10    37 1   
    23    11    12 1   
    24    11    21 1   
    25    12    17 1   
    26    12    32 1   
    27    12    33 1   
    28    13    17 1   
    29    13    18 ar  
    30    14    18 ar  
    31    14    19 ar  
    32    14    34 1   
    33    15    16 1   
    34    16    22 1   
    35    16    23 1   
    36    17    35 1   
    37    20    36 1   
    38    29    37 1   
    39    30    37 1   
    40    31    37 1   
@<TRIPOS>SUBSTRUCTURE
     1 ROO         1 TEMP              0 ****  ****    0 ROOT
