@<TRIPOS>MOLECULE
ROP
   12    11     1     0     0
SMALL
No Charge or Current Charge


@<TRIPOS>ATOM
      1 CA          -0.0460     0.0140     2.0590 c3         1 ROP      -0.075100
      2 CB           0.7300    -0.0010     0.7230 c3         1 ROP      -0.159400
      3 CG          -0.1290    -0.0260    -0.5490 c          1 ROP       0.601100
      4 OD1         -1.3480    -0.0350    -0.5510 o          1 ROP      -0.603100
      5 ND2          0.5540    -0.0380    -1.7120 nt         1 ROP      -0.616000
      6 HCA1         0.6500     0.0320     2.9060 hc         1 ROP       0.042033
      7 HCA2        -0.6890     0.9000     2.1250 hc         1 ROP       0.042033
      8 HCA3        -0.6760    -0.8800     2.1520 hc         1 ROP       0.042033
      9 HCB1         1.4200     0.8480     0.6470 hc         1 ROP       0.052700
     10 HCB2         1.4330    -0.8410     0.6720 hc         1 ROP       0.052700
     11 HND1         0.0450    -0.0550    -2.5840 hn         1 ROP       0.311500
     12 HND2         1.5640    -0.0310    -1.7060 hn         1 ROP       0.311500
@<TRIPOS>BOND
     1     1     2 1   
     2     1     6 1   
     3     1     7 1   
     4     1     8 1   
     5     2     3 1   
     6     2     9 1   
     7     2    10 1   
     8     3     4 2   
     9     3     5 1   
    10     5    11 1   
    11     5    12 1   
@<TRIPOS>SUBSTRUCTURE
     1 ROP         1 TEMP              0 ****  ****    0 ROOT
