@<TRIPOS>MOLECULE
ROP
   12    11     1     0     0
SMALL
abcg2


@<TRIPOS>ATOM
      1 CA          -0.0410     0.0150     2.0140 c3         1 ROP      -0.075100
      2 CB           0.7470    -0.0020     0.7170 c3         1 ROP      -0.159400
      3 CG          -0.1250    -0.0280    -0.5240 c          1 ROP       0.601100
      4 OD1         -1.3470    -0.0460    -0.4730 o          1 ROP      -0.603100
      5 ND2          0.5520    -0.0270    -1.6840 nt         1 ROP      -0.616000
      6 HCA1         0.6390     0.0300     2.8650 hc         1 ROP       0.042033
      7 HCA2        -0.6790     0.8950     2.0860 hc         1 ROP       0.042033
      8 HCA3        -0.6730    -0.8670     2.1120 hc         1 ROP       0.042033
      9 HCB1         1.4040     0.8700     0.6590 hc         1 ROP       0.052700
     10 HCB2         1.4110    -0.8710     0.6870 hc         1 ROP       0.052700
     11 HND1         0.0630    -0.0570    -2.5640 hn         1 ROP       0.311500
     12 HND2         1.5560    -0.0250    -1.7130 hn         1 ROP       0.311500
@<TRIPOS>BOND
     1     1     2 1   
     2     1     6 1   
     3     1     7 1   
     4     1     8 1   
     5     2     3 1   
     6     2     9 1   
     7     2    10 1   
     8     3     4 2   
     9     3     5 1   
    10     5    11 1   
    11     5    12 1   
@<TRIPOS>SUBSTRUCTURE
     1 ROP         1 TEMP              0 ****  ****    0 ROOT
