@<TRIPOS>MOLECULE
ROQ
   17    16     1     0     0
SMALL
No Charge or Current Charge


@<TRIPOS>ATOM
      1 C01         21.5840    25.7610    29.0320 c          1 ROQ       0.445100
      2 C02         20.1630    25.2090    29.3180 c3         1 ROQ      -0.153700
      3 C03         19.0580    26.1040    28.6690 c3         1 ROQ      -0.187400
      4 C04         19.9610    24.9770    30.8350 c3         1 ROQ      -0.059100
      5 C05         22.5930    24.7920    28.2050 c          1 ROQ       0.647000
      6 C06         17.6790    25.4110    28.6540 c          1 ROQ       0.716000
      7 O01         21.9210    26.8860    29.4230 o          1 ROQ      -0.614100
      8 O02         23.2830    25.2840    27.3140 o          1 ROQ      -0.722000
      9 O03         22.6470    23.6020    28.5070 o          1 ROQ      -0.722000
     10 O04         16.9060    25.6280    29.5740 o          1 ROQ      -0.763500
     11 O05         17.4280    24.6520    27.7300 o          1 ROQ      -0.763500
     12 H01         20.1090    24.2240    28.8370 hc         1 ROQ       0.097700
     13 H02         19.3930    26.2590    27.6360 hc         1 ROQ       0.026700
     14 H03         19.0180    27.0310    29.2550 hc         1 ROQ       0.026700
     15 H04         20.7700    24.3550    31.2380 hc         1 ROQ       0.009033
     16 H05         19.9580    25.9290    31.3800 hc         1 ROQ       0.009033
     17 H06         19.0140    24.4630    31.0330 hc         1 ROQ       0.009033
@<TRIPOS>BOND
     1     1     2 1   
     2     1     5 1   
     3     1     7 2   
     4     2     3 1   
     5     2     4 1   
     6     2    12 1   
     7     3     6 1   
     8     3    13 1   
     9     3    14 1   
    10     4    15 1   
    11     4    16 1   
    12     4    17 1   
    13     5     8 1   
    14     5     9 1   
    15     6    10 1   
    16     6    11 1   
@<TRIPOS>SUBSTRUCTURE
     1 ROQ         1 TEMP              0 ****  ****    0 ROOT
