@<TRIPOS>MOLECULE
ROQ
   17    16     1     0     0
SMALL
abcg2


@<TRIPOS>ATOM
      1 C01         21.6580    25.4690    29.2310 c          1 ROQ       0.445100
      2 C02         20.2450    25.0030    29.4830 c3         1 ROQ      -0.153700
      3 C03         19.2840    25.9090    28.7030 c3         1 ROQ      -0.187400
      4 C04         19.9020    24.9650    30.9640 c3         1 ROQ      -0.059100
      5 C05         22.2380    25.2680    27.8040 c          1 ROQ       0.647000
      6 C06         17.8270    25.3940    28.6410 c          1 ROQ       0.716000
      7 O01         22.3390    25.9770    30.0960 o          1 ROQ      -0.614100
      8 O02         23.0200    26.1440    27.4060 o          1 ROQ      -0.722000
      9 O03         21.8730    24.2290    27.2260 o          1 ROQ      -0.722000
     10 O04         16.9390    26.2680    28.5870 o          1 ROQ      -0.763500
     11 O05         17.6640    24.1580    28.6080 o          1 ROQ      -0.763500
     12 H01         20.1480    24.0010    29.0610 hc         1 ROQ       0.097700
     13 H02         19.6250    26.0080    27.6650 hc         1 ROQ       0.026700
     14 H03         19.3040    26.9180    29.1240 hc         1 ROQ       0.026700
     15 H04         20.5890    24.3290    31.5240 hc         1 ROQ       0.009033
     16 H05         19.9320    25.9610    31.4100 hc         1 ROQ       0.009033
     17 H06         18.8980    24.5670    31.1080 hc         1 ROQ       0.009033
@<TRIPOS>BOND
     1     1     2 1   
     2     1     5 1   
     3     1     7 2   
     4     2     3 1   
     5     2     4 1   
     6     2    12 1   
     7     3     6 1   
     8     3    13 1   
     9     3    14 1   
    10     4    15 1   
    11     4    16 1   
    12     4    17 1   
    13     5     8 1   
    14     5     9 1   
    15     6    10 1   
    16     6    11 1   
@<TRIPOS>SUBSTRUCTURE
     1 ROQ         1 TEMP              0 ****  ****    0 ROOT
