@<TRIPOS>MOLECULE
ROR
   20    19     1     0     0
SMALL
No Charge or Current Charge


@<TRIPOS>ATOM
      1 C1           2.5770     0.6100    -0.4020 c3         1 ROR       0.131600
      2 O1           3.8080     0.0810     0.1300 oh         1 ROR      -0.706000
      3 C2           1.3290    -0.1080     0.2070 c3         1 ROR       0.147300
      4 O2           1.3250    -1.4980    -0.1710 oh         1 ROR      -0.688000
      5 C3          -0.0280     0.5470    -0.2380 c3         1 ROR       0.105300
      6 O3          -0.0710     1.9330     0.1630 oh         1 ROR      -0.712000
      7 C4          -1.3010    -0.1820     0.3060 c3         1 ROR       0.024300
      8 O4          -1.3130    -1.5810    -0.1170 oh         1 ROR      -0.699000
      9 C5          -2.6000     0.5640    -0.1190 c          1 ROR       0.551900
     10 O5          -3.5210     0.0120    -0.7180 o          1 ROR      -0.510100
     11 H1           2.5180     1.6850    -0.1850 h1         1 ROR       0.026200
     12 H2           2.5540     0.4990    -1.4950 h1         1 ROR       0.026200
     13 H3           4.5450     0.5130    -0.3620 ho         1 ROR       0.504000
     14 H4           1.3960    -0.0270     1.3020 h1         1 ROR       0.078700
     15 H5           0.3550    -1.7440    -0.1750 ho         1 ROR       0.510000
     16 H6          -0.0690     0.4950    -1.3360 h1         1 ROR       0.078700
     17 H7           0.1920     1.9940     1.1120 ho         1 ROR       0.507000
     18 H8          -1.2780    -0.1260     1.4030 h1         1 ROR       0.094700
     19 H9          -2.2570    -1.8270    -0.2940 ho         1 ROR       0.522000
     20 H10         -2.7300     1.5840     0.3050 h4         1 ROR       0.008200
@<TRIPOS>BOND
     1     1     2 1   
     2     1     3 1   
     3     1    11 1   
     4     1    12 1   
     5     2    13 1   
     6     3     4 1   
     7     3     5 1   
     8     3    14 1   
     9     4    15 1   
    10     5     6 1   
    11     5     7 1   
    12     5    16 1   
    13     6    17 1   
    14     7     8 1   
    15     7     9 1   
    16     7    18 1   
    17     8    19 1   
    18     9    10 2   
    19     9    20 1   
@<TRIPOS>SUBSTRUCTURE
     1 ROR         1 TEMP              0 ****  ****    0 ROOT
