@<TRIPOS>MOLECULE
ROR
   20    19     1     0     0
SMALL
abcg2


@<TRIPOS>ATOM
      1 C1           2.4230     0.4650    -0.5130 c3         1 ROR       0.131600
      2 O1           3.6470     0.1500     0.1070 oh         1 ROR      -0.706000
      3 C2           1.2810    -0.0220     0.3640 c3         1 ROR       0.147300
      4 O2           1.2970    -1.4180     0.5240 oh         1 ROR      -0.688000
      5 C3          -0.0550     0.5210    -0.1770 c3         1 ROR       0.105300
      6 O3          -0.1590     1.9060     0.0620 oh         1 ROR      -0.712000
      7 C4          -1.2820    -0.2570     0.3560 c3         1 ROR       0.024300
      8 O4          -1.4200    -1.4950    -0.2790 oh         1 ROR      -0.699000
      9 C5          -2.5210     0.5930     0.1700 c          1 ROR       0.551900
     10 O5          -3.3590     0.3260    -0.6550 o          1 ROR      -0.510100
     11 H1           2.3160     1.5450    -0.6720 h1         1 ROR       0.026200
     12 H2           2.3320    -0.0120    -1.5010 h1         1 ROR       0.026200
     13 H3           4.3570     0.4190    -0.4830 ho         1 ROR       0.504000
     14 H4           1.4160     0.3820     1.3760 h1         1 ROR       0.078700
     15 H5           1.0490    -1.8330    -0.3090 ho         1 ROR       0.510000
     16 H6          -0.0770     0.4120    -1.2680 h1         1 ROR       0.078700
     17 H7          -0.0420     2.0760     1.0040 ho         1 ROR       0.507000
     18 H8          -1.1710    -0.4270     1.4350 h1         1 ROR       0.094700
     19 H9          -1.9780    -1.3720    -1.0570 ho         1 ROR       0.522000
     20 H10         -2.6240     1.4630     0.8340 h4         1 ROR       0.008200
@<TRIPOS>BOND
     1     1     2 1   
     2     1     3 1   
     3     1    11 1   
     4     1    12 1   
     5     2    13 1   
     6     3     4 1   
     7     3     5 1   
     8     3    14 1   
     9     4    15 1   
    10     5     6 1   
    11     5     7 1   
    12     5    16 1   
    13     6    17 1   
    14     7     8 1   
    15     7     9 1   
    16     7    18 1   
    17     8    19 1   
    18     9    10 2   
    19     9    20 1   
@<TRIPOS>SUBSTRUCTURE
     1 ROR         1 TEMP              0 ****  ****    0 ROOT
