@<TRIPOS>MOLECULE
ROS
   49    52     1     0     0
SMALL
bcc


@<TRIPOS>ATOM
      1 C1           3.5740     1.2760     0.0290 cc         1 ROS       0.447900
      2 C2           2.3050     1.8910     0.0100 cc         1 ROS      -0.376600
      3 C3           1.1710     1.1180    -0.0010 cd         1 ROS       0.398700
      4 O2          -0.0040     1.7670     0.0000 os         1 ROS      -0.356800
      5 C4          -1.1780     1.1170    -0.0130 ca         1 ROS       0.464000
      6 C5          -2.3120     1.8900    -0.0130 ca         1 ROS      -0.355300
      7 C6          -3.5810     1.2740    -0.0470 ca         1 ROS       0.301600
      8 C7          -3.6310    -0.1550    -0.1040 ca         1 ROS      -0.227500
      9 C8          -2.4930    -0.8960    -0.0970 ca         1 ROS       0.009000
     10 C9          -1.2090    -0.2980    -0.0340 ca         1 ROS      -0.291300
     11 C10         -0.0030    -1.0090    -0.0240 cc         1 ROS       0.233000
     12 C11          1.2030    -0.2970    -0.0040 cd         1 ROS      -0.303100
     13 C12          2.4870    -0.8960     0.0450 cd         1 ROS       0.020800
     14 C13          3.6250    -0.1540     0.0600 cc         1 ROS      -0.314100
     15 C14         -0.0030    -2.4840    -0.0350 ca         1 ROS      -0.120000
     16 C15          0.4920    -3.1760    -1.1380 ca         1 ROS      -0.102000
     17 C16          0.4830    -4.5630    -1.1480 ca         1 ROS      -0.122000
     18 C17         -0.0030    -5.2660    -0.0540 ca         1 ROS      -0.093000
     19 C18         -0.4900    -4.5780     1.0500 ca         1 ROS      -0.122000
     20 C19         -0.4970    -3.1910     1.0590 ca         1 ROS      -0.102000
     21 N1           4.6980     2.0010     0.0280 nh         1 ROS      -0.240100
     22 C20          5.9970     1.3530     0.0620 c3         1 ROS       0.014850
     23 C21          4.6330     3.4500     0.0150 c3         1 ROS       0.014850
     24 N2          -4.7050     1.9990    -0.0360 nh         1 ROS      -0.622000
     25 C22         -4.6400     3.4470     0.0000 c3         1 ROS       0.192350
     26 C23         -6.0040     1.3510    -0.0890 c3         1 ROS       0.192350
     27 H2           2.1960     2.9660     0.0100 ha         1 ROS       0.170000
     28 H5          -2.2040     2.9650     0.0060 ha         1 ROS       0.170000
     29 H7          -4.5790    -0.6670    -0.1630 ha         1 ROS       0.159000
     30 H8          -2.5710    -1.9730    -0.1500 ha         1 ROS       0.160000
     31 H12          2.5670    -1.9740     0.0800 ha         1 ROS       0.160000
     32 H13          4.5740    -0.6670     0.1060 ha         1 ROS       0.159000
     33 H15          0.8710    -2.6320    -1.9940 ha         1 ROS       0.142000
     34 H16          0.8610    -5.0930    -2.0130 ha         1 ROS       0.151000
     35 H17         -0.0040    -6.3480    -0.0610 ha         1 ROS       0.151000
     36 H18         -0.8670    -5.1200     1.9070 ha         1 ROS       0.151000
     37 H19         -0.8760    -2.6580     1.9220 ha         1 ROS       0.142000
     38 H201         6.7730     2.1100     0.0180 h1         1 ROS       0.061700
     39 H202         6.1370     0.7800     0.9800 h1         1 ROS       0.061700
     40 H203         6.1340     0.6850    -0.7890 h1         1 ROS       0.061700
     41 H211         5.6390     3.8540     0.0070 h1         1 ROS       0.061700
     42 H212         4.1140     3.8170    -0.8720 h1         1 ROS       0.061700
     43 H213         4.1200     3.8350     0.8990 h1         1 ROS       0.061700
     44 H221        -4.1260     3.8470    -0.8760 h1         1 ROS       0.061700
     45 H222        -5.6470     3.8510     0.0130 h1         1 ROS       0.061700
     46 H223        -4.1230     3.8000     0.8950 h1         1 ROS       0.061700
     47 H231        -6.1420     0.6620     0.7450 h1         1 ROS       0.061700
     48 H232        -6.7800     2.1060    -0.0280 h1         1 ROS       0.061700
     49 H233        -6.1420     0.8010    -1.0210 h1         1 ROS       0.061700
@<TRIPOS>BOND
     1     1     2 1   
     2     1    14 1   
     3     1    21 2   
     4     2     3 2   
     5     2    27 1   
     6     3     4 1   
     7     3    12 1   
     8     4     5 1   
     9     5     6 ar  
    10     5    10 ar  
    11     6     7 ar  
    12     6    28 1   
    13     7     8 ar  
    14     7    24 1   
    15     8     9 ar  
    16     8    29 1   
    17     9    10 ar  
    18     9    30 1   
    19    10    11 1   
    20    11    12 2   
    21    11    15 1   
    22    12    13 1   
    23    13    14 2   
    24    13    31 1   
    25    14    32 1   
    26    15    16 ar  
    27    15    20 ar  
    28    16    17 ar  
    29    16    33 1   
    30    17    18 ar  
    31    17    34 1   
    32    18    19 ar  
    33    18    35 1   
    34    19    20 ar  
    35    19    36 1   
    36    20    37 1   
    37    21    22 1   
    38    21    23 1   
    39    22    38 1   
    40    22    39 1   
    41    22    40 1   
    42    23    41 1   
    43    23    42 1   
    44    23    43 1   
    45    24    25 1   
    46    24    26 1   
    47    25    44 1   
    48    25    45 1   
    49    25    46 1   
    50    26    47 1   
    51    26    48 1   
    52    26    49 1   
@<TRIPOS>SUBSTRUCTURE
     1 ROS         1 TEMP              0 ****  ****    0 ROOT
