@<TRIPOS>MOLECULE
ROS
   49    52     1     0     0
SMALL
No Charge or Current Charge


@<TRIPOS>ATOM
      1 C1           3.5880     1.2090     0.0340 cc         1 ROS       0.447900
      2 C2           2.3230     1.8730    -0.0150 cc         1 ROS      -0.426600
      3 C3           1.1630     1.1470    -0.0220 cd         1 ROS       0.289000
      4 O2          -0.0140     1.8260    -0.0740 os         1 ROS      -0.268000
      5 C4          -1.2120     1.1680    -0.0770 ca         1 ROS       0.289000
      6 C5          -2.3930     1.9150    -0.1250 ca         1 ROS      -0.272000
      7 C6          -3.6380     1.2730    -0.1350 ca         1 ROS       0.440000
      8 C7          -3.6770    -0.1320    -0.0950 ca         1 ROS      -0.209500
      9 C8          -2.4920    -0.8840    -0.0450 ca         1 ROS       0.027000
     10 C9          -1.2440    -0.2320    -0.0360 ca         1 ROS      -0.226000
     11 C10          0.0070    -0.9900     0.0140 cc         1 ROS       0.233000
     12 C11          1.2080    -0.2870     0.0220 cd         1 ROS      -0.237800
     13 C12          2.4680    -0.9880     0.0740 cd         1 ROS      -0.029200
     14 C13          3.6220    -0.2270     0.0780 cc         1 ROS      -0.364100
     15 C14          0.0410    -2.4510     0.0580 ca         1 ROS      -0.120000
     16 C15          0.1140    -3.1940    -1.1360 ca         1 ROS      -0.084000
     17 C16          0.1410    -4.5990    -1.0930 ca         1 ROS      -0.104000
     18 C17          0.0920    -5.2670     0.1430 ca         1 ROS      -0.075000
     19 C18          0.0150    -4.5280     1.3370 ca         1 ROS      -0.104000
     20 C19         -0.0120    -3.1230     1.2950 ca         1 ROS      -0.084000
     21 N1           4.7690     1.9460     0.0390 nh         1 ROS      -0.298700
     22 C20          6.0560     1.3670    -0.4000 c3         1 ROS       0.044150
     23 C21          4.8100     3.3560     0.4810 c3         1 ROS       0.044150
     24 N2          -4.8340     2.0290    -0.1850 nh         1 ROS      -0.760400
     25 C22         -4.9240     3.3780     0.4250 c3         1 ROS       0.192350
     26 C23         -6.0540     1.5030    -0.8460 c3         1 ROS       0.192350
     27 H2           2.2760     2.9520    -0.0620 ha         1 ROS       0.220000
     28 H5          -2.3300     2.9960    -0.1690 ha         1 ROS       0.152000
     29 H7          -4.6290    -0.6510    -0.0900 ha         1 ROS       0.141000
     30 H8          -2.5550    -1.9710    -0.0120 ha         1 ROS       0.142000
     31 H12          2.5350    -2.0740     0.1120 ha         1 ROS       0.210000
     32 H13          4.5820    -0.7290     0.1310 ha         1 ROS       0.209000
     33 H15          0.1510    -2.6820    -2.0950 ha         1 ROS       0.124000
     34 H16          0.1990    -5.1700    -2.0170 ha         1 ROS       0.133000
     35 H17          0.1130    -6.3540     0.1760 ha         1 ROS       0.133000
     36 H18         -0.0240    -5.0440     2.2940 ha         1 ROS       0.133000
     37 H19         -0.0720    -2.5560     2.2210 ha         1 ROS       0.124000
     38 H201         6.7580     2.1550    -0.7000 h1         1 ROS       0.061700
     39 H202         6.5100     0.7890     0.4150 h1         1 ROS       0.061700
     40 H203         5.9060     0.7060    -1.2630 h1         1 ROS       0.061700
     41 H211         5.8250     3.6420     0.7860 h1         1 ROS       0.061700
     42 H212         4.4940     4.0190    -0.3340 h1         1 ROS       0.061700
     43 H213         4.1460     3.5100     1.3410 h1         1 ROS       0.061700
     44 H221        -4.5890     4.1470    -0.2850 h1         1 ROS       0.061700
     45 H222        -5.9560     3.6070     0.7210 h1         1 ROS       0.061700
     46 H223        -4.3020     3.4390     1.3280 h1         1 ROS       0.061700
     47 H231        -6.6440     0.8970    -0.1450 h1         1 ROS       0.061700
     48 H232        -6.6870     2.3240    -1.2110 h1         1 ROS       0.061700
     49 H233        -5.7910     0.8820    -1.7130 h1         1 ROS       0.061700
@<TRIPOS>BOND
     1     1     2 1   
     2     1    14 1   
     3     1    21 2   
     4     2     3 2   
     5     2    27 1   
     6     3     4 1   
     7     3    12 1   
     8     4     5 1   
     9     5     6 ar  
    10     5    10 ar  
    11     6     7 ar  
    12     6    28 1   
    13     7     8 ar  
    14     7    24 1   
    15     8     9 ar  
    16     8    29 1   
    17     9    10 ar  
    18     9    30 1   
    19    10    11 1   
    20    11    12 2   
    21    11    15 1   
    22    12    13 1   
    23    13    14 2   
    24    13    31 1   
    25    14    32 1   
    26    15    16 ar  
    27    15    20 ar  
    28    16    17 ar  
    29    16    33 1   
    30    17    18 ar  
    31    17    34 1   
    32    18    19 ar  
    33    18    35 1   
    34    19    20 ar  
    35    19    36 1   
    36    20    37 1   
    37    21    22 1   
    38    21    23 1   
    39    22    38 1   
    40    22    39 1   
    41    22    40 1   
    42    23    41 1   
    43    23    42 1   
    44    23    43 1   
    45    24    25 1   
    46    24    26 1   
    47    25    44 1   
    48    25    45 1   
    49    25    46 1   
    50    26    47 1   
    51    26    48 1   
    52    26    49 1   
@<TRIPOS>SUBSTRUCTURE
     1 ROS         1 TEMP              0 ****  ****    0 ROOT
