@<TRIPOS>MOLECULE
ROU
   36    37     1     0     0
SMALL
No Charge or Current Charge


@<TRIPOS>ATOM
      1 OAA         -4.3610     3.0240     0.2830 o          1 ROU      -0.688000
      2 CAR         -3.4680     2.2130     0.0620 c          1 ROU       0.719200
      3 OAD         -2.3040     2.5630    -0.0670 o          1 ROU      -0.688000
      4 CAV         -3.8630     0.7450    -0.0310 cc         1 ROU       0.032400
      5 NAP         -5.2160     0.4810     0.1730 ns         1 ROU      -0.492600
      6 CAX         -5.8110    -0.7360     0.1660 c          1 ROU       0.606000
      7 OAB         -7.0020    -0.8870     0.3540 o          1 ROU      -0.604000
      8 NAQ         -4.9640    -1.7640    -0.0660 ns         1 ROU      -0.470500
      9 CAY         -3.6220    -1.7190    -0.2920 c          1 ROU       0.580200
     10 OAC         -2.9960    -2.7500    -0.4800 o          1 ROU      -0.589000
     11 CAW         -3.0290    -0.3470    -0.2830 cd         1 ROU      -0.302400
     12 CAO         -1.5310    -0.2930    -0.5520 c3         1 ROU       0.021800
     13 CAN         -0.6980    -0.3190     0.7470 c3         1 ROU      -0.036100
     14 CAS          0.7970    -0.2190     0.4730 ca         1 ROU      -0.062300
     15 CAK          1.5850    -1.3820     0.4060 ca         1 ROU      -0.032500
     16 CAT          2.9690    -1.2960     0.1440 ca         1 ROU      -0.213800
     17 CAZ          3.8250    -2.5640     0.0520 c3         1 ROU       0.357800
     18 FAF          5.0950    -2.3580     0.4720 f          1 ROU      -0.116500
     19 FAG          3.3320    -3.5760     0.8030 f          1 ROU      -0.116500
     20 FAE          3.8980    -3.0150    -1.2200 f          1 ROU      -0.116500
     21 CAM          3.5520    -0.0270    -0.0630 ca         1 ROU      -0.034000
     22 CAU          2.7730     1.1470     0.0100 ca         1 ROU      -0.213800
     23 CBA          3.4160     2.5180    -0.2270 c3         1 ROU       0.357800
     24 FAI          3.4220     2.8370    -1.5400 f          1 ROU      -0.116500
     25 FAJ          2.7640     3.5130     0.4190 f          1 ROU      -0.116500
     26 FAH          4.7000     2.5630     0.1970 f          1 ROU      -0.116500
     27 CAL          1.3910     1.0400     0.2730 ca         1 ROU      -0.032500
     28 H2          -5.8420     1.2610     0.3530 hn         1 ROU       0.489000
     29 H3          -5.3790    -2.6810    -0.0720 hn         1 ROU       0.320500
     30 H4          -1.2120    -1.1310    -1.1830 hc         1 ROU       0.057700
     31 H5          -1.2690     0.5930    -1.1410 hc         1 ROU       0.057700
     32 H6          -1.0150     0.5070     1.3950 hc         1 ROU       0.061200
     33 H7          -0.9260    -1.2390     1.2980 hc         1 ROU       0.061200
     34 H8           1.1140    -2.3530     0.5490 ha         1 ROU       0.152500
     35 H9           4.6150     0.0460    -0.2880 ha         1 ROU       0.133000
     36 H10          0.7690     1.9320     0.3150 ha         1 ROU       0.152500
@<TRIPOS>BOND
     1     1     2 1   
     2     2     3 1   
     3     2     4 1   
     4     4     5 1   
     5     4    11 2   
     6     5     6 1   
     7     5    28 1   
     8     6     7 2   
     9     6     8 1   
    10     8     9 1   
    11     8    29 1   
    12     9    10 2   
    13     9    11 1   
    14    11    12 1   
    15    12    13 1   
    16    12    30 1   
    17    12    31 1   
    18    13    14 1   
    19    13    32 1   
    20    13    33 1   
    21    14    15 ar  
    22    14    27 ar  
    23    15    16 ar  
    24    15    34 1   
    25    16    17 1   
    26    16    21 ar  
    27    17    18 1   
    28    17    19 1   
    29    17    20 1   
    30    21    22 ar  
    31    21    35 1   
    32    22    23 1   
    33    22    27 ar  
    34    23    24 1   
    35    23    25 1   
    36    23    26 1   
    37    27    36 1   
@<TRIPOS>SUBSTRUCTURE
     1 ROU         1 TEMP              0 ****  ****    0 ROOT
