@<TRIPOS>MOLECULE
ROU
   36    37     1     0     0
SMALL
bcc


@<TRIPOS>ATOM
      1 OAA         -4.2320     3.0050    -0.0680 o          1 ROU      -0.793300
      2 CAR         -3.2950     2.1870    -0.0640 c          1 ROU       0.929800
      3 OAD         -2.0810     2.4130    -0.0140 o          1 ROU      -0.793300
      4 CAV         -3.7480     0.7130    -0.1040 cc         1 ROU       0.032400
      5 NAP         -5.0900     0.5870     0.1250 ns         1 ROU      -0.446100
      6 CAX         -5.7740    -0.5850     0.1700 c          1 ROU       0.815500
      7 OAB         -6.9730    -0.6630     0.3600 o          1 ROU      -0.679500
      8 NAQ         -4.9730    -1.6830    -0.0080 ns         1 ROU      -0.604500
      9 CAY         -3.6110    -1.6890    -0.2450 c          1 ROU       0.722700
     10 OAC         -3.0260    -2.7530    -0.3730 o          1 ROU      -0.664500
     11 CAW         -2.9750    -0.3800    -0.3190 cd         1 ROU      -0.302400
     12 CAO         -1.4980    -0.3650    -0.5720 c3         1 ROU       0.021800
     13 CAN         -0.6940    -0.4670     0.7320 c3         1 ROU      -0.036100
     14 CAS          0.7770    -0.3140     0.4870 ca         1 ROU      -0.062300
     15 CAK          1.6210    -1.4160     0.4260 ca         1 ROU      -0.050500
     16 CAT          2.9770    -1.2570     0.1720 ca         1 ROU      -0.213800
     17 CAZ          3.8530    -2.4670     0.0590 c3         1 ROU       0.721700
     18 FAF          5.1340    -2.1960     0.3260 f          1 ROU      -0.237800
     19 FAG          3.4740    -3.4420     0.8920 f          1 ROU      -0.237800
     20 FAE          3.8160    -2.9810    -1.1800 f          1 ROU      -0.237800
     21 CAM          3.5140     0.0070    -0.0300 ca         1 ROU      -0.052000
     22 CAU          2.6740     1.1080     0.0260 ca         1 ROU      -0.213800
     23 CBA          3.2010     2.4950    -0.1750 c3         1 ROU       0.721700
     24 FAI          2.6300     3.0890    -1.2320 f          1 ROU      -0.237800
     25 FAJ          2.9470     3.2760     0.8840 f          1 ROU      -0.237800
     26 FAH          4.5210     2.5230    -0.3760 f          1 ROU      -0.237800
     27 CAL          1.3180     0.9500     0.2800 ca         1 ROU      -0.050500
     28 H2          -5.5990     1.4580     0.2220 hn         1 ROU       0.375500
     29 H3          -5.4310    -2.5840     0.0380 hn         1 ROU       0.320500
     30 H4          -1.2390    -1.2070    -1.2170 hc         1 ROU       0.057700
     31 H5          -1.2150     0.5410    -1.0990 hc         1 ROU       0.057700
     32 H6          -1.0330     0.3130     1.4140 hc         1 ROU       0.061200
     33 H7          -0.8930    -1.4260     1.2140 hc         1 ROU       0.061200
     34 H8           1.2040    -2.4020     0.5870 ha         1 ROU       0.170500
     35 H9           4.5710     0.1300    -0.2190 ha         1 ROU       0.151000
     36 H10          0.6570     1.8080     0.3200 ha         1 ROU       0.170500
@<TRIPOS>BOND
     1     1     2 1   
     2     2     3 1   
     3     2     4 1   
     4     4     5 1   
     5     4    11 2   
     6     5     6 1   
     7     5    28 1   
     8     6     7 2   
     9     6     8 1   
    10     8     9 1   
    11     8    29 1   
    12     9    10 2   
    13     9    11 1   
    14    11    12 1   
    15    12    13 1   
    16    12    30 1   
    17    12    31 1   
    18    13    14 1   
    19    13    32 1   
    20    13    33 1   
    21    14    15 ar  
    22    14    27 ar  
    23    15    16 ar  
    24    15    34 1   
    25    16    17 1   
    26    16    21 ar  
    27    17    18 1   
    28    17    19 1   
    29    17    20 1   
    30    21    22 ar  
    31    21    35 1   
    32    22    23 1   
    33    22    27 ar  
    34    23    24 1   
    35    23    25 1   
    36    23    26 1   
    37    27    36 1   
@<TRIPOS>SUBSTRUCTURE
     1 ROU         1 TEMP              0 ****  ****    0 ROOT
