@<TRIPOS>MOLECULE
ROV
   70    72     1     0     0
SMALL
No Charge or Current Charge


@<TRIPOS>ATOM
      1 C10        162.1770   151.3560   149.3290 c3         1 ROV      -0.016900
      2 C11        163.5600   150.7130   149.0800 c3         1 ROV      -0.084850
      3 C12        161.8810   151.5050   150.8380 c3         1 ROV      -0.084850
      4 C14        158.7460   151.8560   147.6560 c          1 ROV       0.653100
      5 C01        158.8960   155.6170   146.3440 c3         1 ROV      -0.084850
      6 C03        160.5380   154.8510   144.5420 c3         1 ROV      -0.084850
      7 C04        160.9280   154.2120   146.9860 ca         1 ROV      -0.060800
      8 C05        161.0130   152.9510   147.6440 ca         1 ROV      -0.026000
      9 C06        162.0370   152.7070   148.6000 ca         1 ROV      -0.060800
     10 C07        162.9430   153.7430   148.9090 ca         1 ROV      -0.108000
     11 C08        162.8500   154.9890   148.2800 ca         1 ROV      -0.108000
     12 C09        161.8540   155.2210   147.3240 ca         1 ROV      -0.108000
     13 O15        158.1730   152.6490   148.3880 o          1 ROV      -0.631100
     14 N16        158.1180   150.7950   147.0540 ns         1 ROV      -0.510900
     15 C17        156.6680   150.5770   147.0460 c3         1 ROV       0.124000
     16 C18        155.9060   151.4010   145.9670 c5         1 ROV      -0.027700
     17 C19        155.5510   152.8570   146.4280 c5         1 ROV      -0.070900
     18 C20        154.4190   153.3290   145.4580 c5         1 ROV      -0.076400
     19 C21        153.8130   152.0170   144.8720 c5         1 ROV      -0.076400
     20 C22        154.4480   150.8890   145.7320 c5         1 ROV      -0.070900
     21 C23        156.6510   151.3770   144.5950 ca         1 ROV      -0.120300
     22 C24        157.2150   152.5230   143.9810 ca         1 ROV      -0.070500
     23 C25        157.9140   152.4260   142.7660 ca         1 ROV      -0.190000
     24 C26        158.0840   151.1880   142.1230 ca         1 ROV       0.326000
     25 C27        157.5360   150.0440   142.7300 ca         1 ROV      -0.190000
     26 C28        156.8380   150.1370   143.9460 ca         1 ROV      -0.070500
     27 N29        158.7980   151.0940   140.9000 nh         1 ROV      -0.822400
     28 C30        158.5170   150.0190   139.9200 c3         1 ROV       0.213600
     29 C31        159.8650   152.0620   140.5530 c3         1 ROV       0.213600
     30 H1         161.4460   150.6350   148.9500 hc         1 ROV       0.057700
     31 H2         163.6060   149.7120   149.5270 hc         1 ROV       0.034450
     32 H3         163.7470   150.6120   148.0050 hc         1 ROV       0.034450
     33 H4         164.3670   151.3140   149.5150 hc         1 ROV       0.034450
     34 H5         160.8830   151.9320   150.9920 hc         1 ROV       0.034450
     35 H6         161.9130   150.5280   151.3360 hc         1 ROV       0.034450
     36 H7         162.6140   152.1590   151.3250 hc         1 ROV       0.034450
     37 H8         158.4160   155.3450   147.2920 hc         1 ROV       0.034450
     38 H9         159.4120   156.5740   146.4840 hc         1 ROV       0.034450
     39 H10        158.1080   155.7610   145.5950 hc         1 ROV       0.034450
     40 H11        159.2650   153.6260   145.7010 hc         1 ROV       0.057700
     41 H12        161.2100   154.0420   144.2310 hc         1 ROV       0.034450
     42 H13        159.7770   154.9760   143.7630 hc         1 ROV       0.034450
     43 H14        161.1190   155.7780   144.6010 hc         1 ROV       0.034450
     44 H15        163.7260   153.5850   149.6480 ha         1 ROV       0.113500
     45 H16        163.5570   155.7780   148.5300 ha         1 ROV       0.112000
     46 H17        161.8060   156.1930   146.8400 ha         1 ROV       0.113500
     47 H18        160.4450   151.1780   146.7610 hn         1 ROV       0.150000
     48 H19        158.6870   150.2060   146.4600 hn         1 ROV       0.303500
     49 H20        156.2580   150.7940   148.0420 h1         1 ROV       0.059700
     50 H21        156.4990   149.5100   146.8530 h1         1 ROV       0.059700
     51 H22        156.4070   153.5390   146.4560 hc         1 ROV       0.047950
     52 H23        155.1660   152.8430   147.4550 hc         1 ROV       0.047950
     53 H24        154.8050   153.9730   144.6600 hc         1 ROV       0.041450
     54 H25        153.6660   153.9180   145.9940 hc         1 ROV       0.041450
     55 H26        152.7180   152.0070   144.9280 hc         1 ROV       0.041450
     56 H27        154.0740   151.9040   143.8130 hc         1 ROV       0.041450
     57 H28        153.9100   150.7770   146.6820 hc         1 ROV       0.047950
     58 H29        154.3980   149.9150   145.2350 hc         1 ROV       0.047950
     59 H30        157.1300   153.5070   144.4270 ha         1 ROV       0.109000
     60 H31        158.3180   153.3310   142.3250 ha         1 ROV       0.111000
     61 H32        157.6630   149.0680   142.2740 ha         1 ROV       0.111000
     62 H33        156.4480   149.2240   144.3910 ha         1 ROV       0.109000
     63 H34        157.4440   149.7860   139.9010 h1         1 ROV       0.034367
     64 H35        158.8070   150.3290   138.9070 h1         1 ROV       0.034367
     65 H36        159.0730   149.1080   140.1790 h1         1 ROV       0.034367
     66 H37        159.4340   152.9610   140.0930 h1         1 ROV       0.034367
     67 H38        160.4250   152.3570   141.4500 h1         1 ROV       0.034367
     68 H39        160.5800   151.6180   139.8470 h1         1 ROV       0.034367
     69 N13        160.0850   151.9260   147.3370 ns         1 ROV      -0.202000
     70 C02        159.8770   154.5110   145.8970 c3         1 ROV      -0.016900
@<TRIPOS>BOND
     1     1     2 1   
     2     1     3 1   
     3     1     9 1   
     4     1    30 1   
     5     2    31 1   
     6     2    32 1   
     7     2    33 1   
     8     3    34 1   
     9     3    35 1   
    10     3    36 1   
    11     4    13 2   
    12     4    14 1   
    13     4    69 1   
    14     5    37 1   
    15     5    38 1   
    16     5    39 1   
    17     5    70 1   
    18     6    41 1   
    19     6    42 1   
    20     6    43 1   
    21     6    70 1   
    22     7     8 ar  
    23     7    12 ar  
    24     7    70 1   
    25     8     9 ar  
    26     8    69 1   
    27     9    10 ar  
    28    10    11 ar  
    29    10    44 1   
    30    11    12 ar  
    31    11    45 1   
    32    12    46 1   
    33    14    15 1   
    34    14    48 1   
    35    15    16 1   
    36    15    49 1   
    37    15    50 1   
    38    16    17 1   
    39    16    20 1   
    40    16    21 1   
    41    17    18 1   
    42    17    51 1   
    43    17    52 1   
    44    18    19 1   
    45    18    53 1   
    46    18    54 1   
    47    19    20 1   
    48    19    55 1   
    49    19    56 1   
    50    20    57 1   
    51    20    58 1   
    52    21    22 ar  
    53    21    26 ar  
    54    22    23 ar  
    55    22    59 1   
    56    23    24 ar  
    57    23    60 1   
    58    24    25 ar  
    59    24    27 1   
    60    25    26 ar  
    61    25    61 1   
    62    26    62 1   
    63    27    28 1   
    64    27    29 1   
    65    28    63 1   
    66    28    64 1   
    67    28    65 1   
    68    29    66 1   
    69    29    67 1   
    70    29    68 1   
    71    40    70 1   
    72    47    69 1   
@<TRIPOS>SUBSTRUCTURE
     1 ROV         1 TEMP              0 ****  ****    0 ROOT
