@<TRIPOS>MOLECULE
ROV
   70    72     1     0     0
SMALL
bcc


@<TRIPOS>ATOM
      1 C10        162.0020   151.4100   149.3010 c3         1 ROV      -0.016900
      2 C11        163.0330   150.6860   148.4310 c3         1 ROV      -0.084850
      3 C12        162.3680   151.2900   150.7780 c3         1 ROV      -0.084850
      4 C14        158.8850   151.8870   147.5210 c          1 ROV       0.787100
      5 C01        158.7210   155.7120   146.7140 c3         1 ROV      -0.084850
      6 C03        160.5810   155.4670   145.0270 c3         1 ROV      -0.084850
      7 C04        160.8050   154.4630   147.3240 ca         1 ROV      -0.060800
      8 C05        160.9450   153.1540   147.7980 ca         1 ROV       0.066600
      9 C06        161.8380   152.8390   148.8330 ca         1 ROV      -0.060800
     10 C07        162.5970   153.8670   149.3830 ca         1 ROV      -0.126000
     11 C08        162.4640   155.1710   148.9290 ca         1 ROV      -0.126000
     12 C09        161.5730   155.4650   147.9130 ca         1 ROV      -0.126000
     13 O15        158.3250   152.4930   148.4260 o          1 ROV      -0.631100
     14 N16        158.2870   150.9230   146.7740 ns         1 ROV      -0.577900
     15 C17        156.8660   150.6720   146.7960 c3         1 ROV       0.124000
     16 C18        156.0650   151.4870   145.7660 c5         1 ROV      -0.027700
     17 C19        155.8970   152.9590   146.1650 c5         1 ROV      -0.070900
     18 C20        154.7080   153.4590   145.3360 c5         1 ROV      -0.076400
     19 C21        153.8600   152.2000   145.0470 c5         1 ROV      -0.076400
     20 C22        154.5890   151.0530   145.7540 c5         1 ROV      -0.070900
     21 C23        156.7020   151.3100   144.3940 ca         1 ROV      -0.120300
     22 C24        157.4800   152.2870   143.7790 ca         1 ROV      -0.088500
     23 C25        158.1190   152.0790   142.5660 ca         1 ROV      -0.208000
     24 C26        158.0130   150.8540   141.8880 ca         1 ROV       0.187600
     25 C27        157.2480   149.8540   142.5160 ca         1 ROV      -0.208000
     26 C28        156.6200   150.0890   143.7260 ca         1 ROV      -0.088500
     27 N29        158.6230   150.6440   140.6760 nh         1 ROV      -0.684000
     28 C30        158.6600   149.3100   140.1260 c3         1 ROV       0.213600
     29 C31        159.5820   151.6110   140.1960 c3         1 ROV       0.213600
     30 H1         161.0450   150.9020   149.1640 hc         1 ROV       0.057700
     31 H2         163.1310   149.6430   148.7360 hc         1 ROV       0.034450
     32 H3         162.7540   150.6980   147.3760 hc         1 ROV       0.034450
     33 H4         164.0160   151.1550   148.5190 hc         1 ROV       0.034450
     34 H5         161.6710   151.8390   151.4120 hc         1 ROV       0.034450
     35 H6         162.3390   150.2420   151.0810 hc         1 ROV       0.034450
     36 H7         163.3740   151.6560   150.9880 hc         1 ROV       0.034450
     37 H8         158.1940   155.2410   147.5440 hc         1 ROV       0.034450
     38 H9         159.0970   156.6790   147.0540 hc         1 ROV       0.034450
     39 H10        157.9940   155.9030   145.9210 hc         1 ROV       0.034450
     40 H11        159.4050   153.8970   145.8300 hc         1 ROV       0.057700
     41 H12        161.3970   154.8380   144.6700 hc         1 ROV       0.034450
     42 H13        159.8910   155.6210   144.1950 hc         1 ROV       0.034450
     43 H14        161.0000   156.4390   145.2910 hc         1 ROV       0.034450
     44 H15        163.3000   153.6600   150.1800 ha         1 ROV       0.131500
     45 H16        163.0610   155.9580   149.3720 ha         1 ROV       0.130000
     46 H17        161.4780   156.4890   147.5700 ha         1 ROV       0.131500
     47 H18        160.6280   151.5700   146.4690 hn         1 ROV       0.316500
     48 H19        158.7790   150.5830   145.9630 hn         1 ROV       0.303500
     49 H20        156.4880   150.8750   147.7980 h1         1 ROV       0.059700
     50 H21        156.7150   149.6060   146.6100 h1         1 ROV       0.059700
     51 H22        156.7900   153.5740   146.0530 hc         1 ROV       0.047950
     52 H23        155.6470   152.9900   147.2280 hc         1 ROV       0.047950
     53 H24        155.0430   153.9210   144.4050 hc         1 ROV       0.041450
     54 H25        154.1440   154.2220   145.8760 hc         1 ROV       0.041450
     55 H26        152.8310   152.3010   145.3930 hc         1 ROV       0.041450
     56 H27        153.8110   152.0100   143.9740 hc         1 ROV       0.041450
     57 H28        154.2460   150.9660   146.7900 hc         1 ROV       0.047950
     58 H29        154.4120   150.0840   145.2850 hc         1 ROV       0.047950
     59 H30        157.6080   153.2560   144.2420 ha         1 ROV       0.127000
     60 H31        158.7070   152.8880   142.1560 ha         1 ROV       0.129000
     61 H32        157.1400   148.8760   142.0660 ha         1 ROV       0.129000
     62 H33        156.0550   149.2730   144.1630 ha         1 ROV       0.127000
     63 H34        157.6550   148.9160   139.9640 h1         1 ROV       0.034367
     64 H35        159.1540   149.3360   139.1580 h1         1 ROV       0.034367
     65 H36        159.1990   148.5970   140.7610 h1         1 ROV       0.034367
     66 H37        159.1210   152.5880   140.0340 h1         1 ROV       0.034367
     67 H38        160.4280   151.7490   140.8780 h1         1 ROV       0.034367
     68 H39        159.9760   151.2810   139.2380 h1         1 ROV       0.034367
     69 N13        160.1940   152.1120   147.2010 ns         1 ROV      -0.528100
     70 C02        159.8520   154.8190   146.2050 c3         1 ROV      -0.016900
@<TRIPOS>BOND
     1     1     2 1   
     2     1     3 1   
     3     1     9 1   
     4     1    30 1   
     5     2    31 1   
     6     2    32 1   
     7     2    33 1   
     8     3    34 1   
     9     3    35 1   
    10     3    36 1   
    11     4    13 2   
    12     4    14 1   
    13     4    69 1   
    14     5    37 1   
    15     5    38 1   
    16     5    39 1   
    17     5    70 1   
    18     6    41 1   
    19     6    42 1   
    20     6    43 1   
    21     6    70 1   
    22     7     8 ar  
    23     7    12 ar  
    24     7    70 1   
    25     8     9 ar  
    26     8    69 1   
    27     9    10 ar  
    28    10    11 ar  
    29    10    44 1   
    30    11    12 ar  
    31    11    45 1   
    32    12    46 1   
    33    14    15 1   
    34    14    48 1   
    35    15    16 1   
    36    15    49 1   
    37    15    50 1   
    38    16    17 1   
    39    16    20 1   
    40    16    21 1   
    41    17    18 1   
    42    17    51 1   
    43    17    52 1   
    44    18    19 1   
    45    18    53 1   
    46    18    54 1   
    47    19    20 1   
    48    19    55 1   
    49    19    56 1   
    50    20    57 1   
    51    20    58 1   
    52    21    22 ar  
    53    21    26 ar  
    54    22    23 ar  
    55    22    59 1   
    56    23    24 ar  
    57    23    60 1   
    58    24    25 ar  
    59    24    27 1   
    60    25    26 ar  
    61    25    61 1   
    62    26    62 1   
    63    27    28 1   
    64    27    29 1   
    65    28    63 1   
    66    28    64 1   
    67    28    65 1   
    68    29    66 1   
    69    29    67 1   
    70    29    68 1   
    71    40    70 1   
    72    47    69 1   
@<TRIPOS>SUBSTRUCTURE
     1 ROV         1 TEMP              0 ****  ****    0 ROOT
