@<TRIPOS>MOLECULE
ROY
   44    47     1     0     0
SMALL
No Charge or Current Charge


@<TRIPOS>ATOM
      1 CAV         74.3520    39.6430     2.8010 cx         1 ROY      -0.112900
      2 CAW         74.3510    38.5690     3.8580 cx         1 ROY      -0.112900
      3 CAU         75.4540    38.6050     2.8240 cx         1 ROY      -0.094500
      4 CAH         75.5220    37.5390     1.8010 cc         1 ROY       0.008700
      5 CAI         75.3100    37.5900     0.4310 cd         1 ROY       0.048800
      6 ClAX        74.9090    39.0260    -0.4650 cl         1 ROY      -0.143000
      7 CAE         75.5560    36.3060    -0.1920 ca         1 ROY      -0.112800
      8 CAD         75.4870    35.8500    -1.5160 ca         1 ROY       0.195000
      9 ClAJ        74.9980    36.8590    -2.8750 cl         1 ROY      -0.171000
     10 CAA         75.8310    34.5100    -1.7480 ca         1 ROY      -0.175000
     11 CAB         76.2300    33.6860    -0.6660 ca         1 ROY       0.317500
     12 CAK         76.6200    32.2090    -0.8950 c          1 ROY       0.512600
     13 OAS         76.9740    31.4590     0.0060 o          1 ROY      -0.563100
     14 NAT         76.5730    31.6990    -2.1570 nt         1 ROY      -0.607000
     15 NAC         76.2790    34.1780     0.6090 nb         1 ROY      -0.627000
     16 CAF         75.9360    35.4650     0.8240 ca         1 ROY       0.375500
     17 NAG         75.9030    36.1960     2.0110 na         1 ROY      -0.171400
     18 CAL         76.3370    35.5880     3.2890 c3         1 ROY       0.083600
     19 CAM         75.4200    34.4660     3.8650 c6         1 ROY      -0.075700
     20 CAR         73.9640    34.9290     4.1340 c6         1 ROY      -0.070400
     21 CAQ         73.0610    33.7560     4.6150 c6         1 ROY       0.164300
     22 NAP         73.8300    32.6140     5.1800 n7         1 ROY      -0.860400
     23 CAO         74.9910    33.0360     5.9960 c6         1 ROY       0.164300
     24 CAN         76.0220    33.8550     5.1670 c6         1 ROY      -0.070400
     25 H1          74.6050    40.6560     3.1060 hc         1 ROY       0.079700
     26 H2          73.5850    39.5790     2.0330 hc         1 ROY       0.079700
     27 H3          74.6010    38.8560     4.8770 hc         1 ROY       0.079700
     28 H4          73.5850    37.8030     3.7760 hc         1 ROY       0.079700
     29 H5          76.4350    38.9280     3.1650 hc         1 ROY       0.093700
     30 H6          75.7880    34.1270    -2.7620 ha         1 ROY       0.135000
     31 H7          76.8280    30.7330    -2.3070 hn         1 ROY       0.316500
     32 H8          76.2870    32.2730    -2.9370 hn         1 ROY       0.316500
     33 H9          77.3410    35.1700     3.1390 h1         1 ROY       0.060700
     34 H10         76.4290    36.3800     4.0420 h1         1 ROY       0.060700
     35 H11         75.3840    33.6700     3.1080 hc         1 ROY       0.105700
     36 H12         73.9730    35.7120     4.9040 hc         1 ROY       0.040450
     37 H13         73.5230    35.3790     3.2340 hc         1 ROY       0.040450
     38 H14         72.3610    34.1370     5.3730 h1         1 ROY       0.029950
     39 H15         72.4580    33.3860     3.7730 h1         1 ROY       0.029950
     40 H16         73.1990    32.0340     5.7480 hn         1 ROY       0.412000
     41 H18         75.4840    32.1530     6.4300 h1         1 ROY       0.029950
     42 H19         74.6280    33.6520     6.8320 h1         1 ROY       0.029950
     43 H20         76.8700    33.2100     4.8990 hc         1 ROY       0.040450
     44 H21         76.4340    34.6480     5.8060 hc         1 ROY       0.040450
@<TRIPOS>BOND
     1     1     2 1   
     2     1     3 1   
     3     1    25 1   
     4     1    26 1   
     5     2     3 1   
     6     2    27 1   
     7     2    28 1   
     8     3     4 1   
     9     3    29 1   
    10     4     5 2   
    11     4    17 1   
    12     5     6 1   
    13     5     7 1   
    14     7     8 ar  
    15     7    16 ar  
    16     8     9 1   
    17     8    10 ar  
    18    10    11 ar  
    19    10    30 1   
    20    11    12 1   
    21    11    15 ar  
    22    12    13 2   
    23    12    14 1   
    24    14    31 1   
    25    14    32 1   
    26    15    16 ar  
    27    16    17 1   
    28    17    18 1   
    29    18    19 1   
    30    18    33 1   
    31    18    34 1   
    32    19    20 1   
    33    19    24 1   
    34    19    35 1   
    35    20    21 1   
    36    20    36 1   
    37    20    37 1   
    38    21    22 1   
    39    21    38 1   
    40    21    39 1   
    41    22    23 1   
    42    22    40 1   
    43    23    24 1   
    44    23    41 1   
    45    23    42 1   
    46    24    43 1   
    47    24    44 1   
@<TRIPOS>SUBSTRUCTURE
     1 ROY         1 TEMP              0 ****  ****    0 ROOT
