@<TRIPOS>MOLECULE
ROY
   44    47     1     0     0
SMALL
abcg2


@<TRIPOS>ATOM
      1 CAV         74.5120    39.5590     2.9240 cx         1 ROY      -0.112900
      2 CAW         74.5410    38.4710     3.9430 cx         1 ROY      -0.112900
      3 CAU         75.5530    38.4870     2.8250 cx         1 ROY      -0.094500
      4 CAH         75.5180    37.4750     1.7570 cc         1 ROY       0.008700
      5 CAI         75.2100    37.6170     0.4260 cd         1 ROY       0.048800
      6 CLAX        74.7620    39.0770    -0.3510 cl         1 ROY      -0.143000
      7 CAE         75.3860    36.3610    -0.2040 ca         1 ROY      -0.112800
      8 CAD         75.2600    35.8030    -1.4690 ca         1 ROY       0.195000
      9 CLAJ        74.7060    36.7370    -2.8040 cl         1 ROY      -0.171000
     10 CAA         75.5790    34.4700    -1.6490 ca         1 ROY      -0.175000
     11 CAB         76.0220    33.7180    -0.5540 ca         1 ROY       0.317500
     12 CAK         76.3530    32.2550    -0.6820 c          1 ROY       0.512600
     13 OAS         76.2320    31.5060     0.2730 o          1 ROY      -0.563100
     14 NAT         76.7670    31.8560    -1.8930 nt         1 ROY      -0.607000
     15 NAC         76.1410    34.2100     0.6670 nb         1 ROY      -0.627000
     16 CAF         75.8270    35.4790     0.8150 ca         1 ROY       0.375500
     17 NAG         75.8900    36.1690     1.9860 na         1 ROY      -0.171400
     18 CAL         76.3260    35.6020     3.2530 c3         1 ROY       0.083600
     19 CAM         75.4600    34.4530     3.7630 c6         1 ROY      -0.075700
     20 CAR         73.9930    34.8210     3.9400 c6         1 ROY      -0.070400
     21 CAQ         73.1740    33.5850     4.3300 c6         1 ROY       0.164300
     22 NAP         73.9960    32.6290     5.0650 n7         1 ROY      -0.860400
     23 CAO         74.9370    33.2910     5.9490 c6         1 ROY       0.164300
     24 CAN         76.0260    33.9620     5.1060 c6         1 ROY      -0.070400
     25 H1          74.8500    40.5470     3.2090 hc         1 ROY       0.079700
     26 H2          73.6960    39.5550     2.2150 hc         1 ROY       0.079700
     27 H3          74.9010    38.6910     4.9390 hc         1 ROY       0.079700
     28 H4          73.7560    37.7280     3.9000 hc         1 ROY       0.079700
     29 H5          76.5580    38.7760     3.1210 hc         1 ROY       0.093700
     30 H6          75.4590    34.0220    -2.6250 ha         1 ROY       0.135000
     31 H7          77.0040    30.8900    -2.0470 hn         1 ROY       0.316500
     32 H8          77.0010    32.5040    -2.6250 hn         1 ROY       0.316500
     33 H9          77.3580    35.2630     3.1430 h1         1 ROY       0.060700
     34 H10         76.3320    36.4120     3.9810 h1         1 ROY       0.060700
     35 H11         75.5220    33.6360     3.0400 hc         1 ROY       0.105700
     36 H12         73.9050    35.5920     4.7120 hc         1 ROY       0.040450
     37 H13         73.5730    35.2540     3.0290 hc         1 ROY       0.040450
     38 H14         72.2930    33.9110     4.9020 h1         1 ROY       0.029950
     39 H15         72.7960    33.0960     3.4280 h1         1 ROY       0.029950
     40 H16         73.4000    32.0070     5.5940 hn         1 ROY       0.412000
     41 H18         75.3830    32.5470     6.6110 h1         1 ROY       0.029950
     42 H19         74.4560    34.0340     6.6030 h1         1 ROY       0.029950
     43 H20         76.8460    33.2640     4.9210 hc         1 ROY       0.040450
     44 H21         76.4480    34.7990     5.6710 hc         1 ROY       0.040450
@<TRIPOS>BOND
     1     1     2 1   
     2     1     3 1   
     3     1    25 1   
     4     1    26 1   
     5     2     3 1   
     6     2    27 1   
     7     2    28 1   
     8     3     4 1   
     9     3    29 1   
    10     4     5 2   
    11     4    17 1   
    12     5     6 1   
    13     5     7 1   
    14     7     8 ar  
    15     7    16 ar  
    16     8     9 1   
    17     8    10 ar  
    18    10    11 ar  
    19    10    30 1   
    20    11    12 1   
    21    11    15 ar  
    22    12    13 2   
    23    12    14 1   
    24    14    31 1   
    25    14    32 1   
    26    15    16 ar  
    27    16    17 1   
    28    17    18 1   
    29    18    19 1   
    30    18    33 1   
    31    18    34 1   
    32    19    20 1   
    33    19    24 1   
    34    19    35 1   
    35    20    21 1   
    36    20    36 1   
    37    20    37 1   
    38    21    22 1   
    39    21    38 1   
    40    21    39 1   
    41    22    23 1   
    42    22    40 1   
    43    23    24 1   
    44    23    41 1   
    45    23    42 1   
    46    24    43 1   
    47    24    44 1   
@<TRIPOS>SUBSTRUCTURE
     1 ROY         1 TEMP              0 ****  ****    0 ROOT
