@<TRIPOS>MOLECULE
ROZ
   38    40     1     0     0
SMALL
No Charge or Current Charge


@<TRIPOS>ATOM
      1 N1         -16.4130     4.2680    26.3840 nb         1 ROZ      -0.631000
      2 C4         -16.8750     6.5410    25.6760 ca         1 ROZ      -0.067000
      3 C5         -16.0090     5.4460    25.8610 ca         1 ROZ       0.332900
      4 C6         -17.7140     4.1470    26.7370 ca         1 ROZ       0.306900
      5 C7         -18.6710     5.1840    26.5860 ca         1 ROZ      -0.054000
      6 C8         -20.7750     3.8990    27.3130 c          1 ROZ       0.602100
      7 C10        -22.3370     4.1260    29.2710 ca         1 ROZ      -0.065300
      8 C13        -22.5510     3.9980    32.0810 ca         1 ROZ      -0.094000
      9 C15        -22.6260     2.9020    29.9080 ca         1 ROZ      -0.084000
     10 C17        -19.0990     7.5200    25.8530 ca         1 ROZ      -0.049000
     11 C14        -22.7320     2.8410    31.3070 ca         1 ROZ       0.126000
     12 C12        -22.2610     5.2220    31.4520 ca         1 ROZ      -0.099000
     13 C11        -22.1550     5.2850    30.0510 ca         1 ROZ      -0.092000
     14 C9         -22.2140     4.1930    27.7520 c3         1 ROZ      -0.109100
     15 O1         -20.3370     2.7550    27.2690 o          1 ROZ      -0.556100
     16 N2         -20.0330     5.0250    26.9820 ns         1 ROZ      -0.158000
     17 C16        -18.2310     6.4190    26.0430 ca         1 ROZ      -0.049000
     18 C3         -16.3940     7.7440    25.1310 ca         1 ROZ      -0.085000
     19 C2         -17.2600     8.8340    24.9470 ca         1 ROZ      -0.094000
     20 C1         -18.6260     8.7360    25.3060 ca         1 ROZ      -0.137600
     21 C          -19.5880     9.8910    25.1190 c          1 ROZ       0.610700
     22 O          -20.7680     9.8230    25.4230 o          1 ROZ      -0.610100
     23 N          -19.1160    11.0420    24.5930 nt         1 ROZ      -0.600000
     24 H1         -14.9570     5.5140    25.5860 h4         1 ROZ       0.024100
     25 H2         -17.9780     3.1870    27.1730 h4         1 ROZ       0.049100
     26 H3         -22.6330     3.9470    33.1640 ha         1 ROZ       0.131000
     27 H4         -22.7650     1.9980    29.3200 ha         1 ROZ       0.128000
     28 H5         -20.1480     7.4430    26.1240 ha         1 ROZ       0.133000
     29 H6         -22.1200     6.1200    32.0500 ha         1 ROZ       0.120000
     30 H7         -21.9290     6.2370    29.5750 ha         1 ROZ       0.118000
     31 H8         -22.5090     5.1930    27.4130 hc         1 ROZ       0.069700
     32 H9         -22.8780     3.4480    27.2970 hc         1 ROZ       0.069700
     33 H10        -20.5480     5.8930    27.0500 hn         1 ROZ       0.155000
     34 H11        -15.3470     7.8380    24.8480 ha         1 ROZ       0.123000
     35 H12        -16.8540     9.7490    24.5230 ha         1 ROZ       0.115000
     36 H13        -19.7470    11.8180    24.4650 hn         1 ROZ       0.317500
     37 H14        -18.1450    11.1220    24.3340 hn         1 ROZ       0.317500
     38 Cl         -23.0920     1.3080    32.0930 cl         1 ROZ      -0.213000
@<TRIPOS>BOND
     1     1     3 ar  
     2     1     4 ar  
     3     2     3 ar  
     4     2    17 ar  
     5     2    18 ar  
     6     3    24 1   
     7     4     5 ar  
     8     4    25 1   
     9     5    16 1   
    10     5    17 ar  
    11     6    14 1   
    12     6    15 2   
    13     6    16 1   
    14     7     9 ar  
    15     7    13 ar  
    16     7    14 1   
    17     8    11 ar  
    18     8    12 ar  
    19     8    26 1   
    20     9    11 ar  
    21     9    27 1   
    22    10    17 ar  
    23    10    20 ar  
    24    10    28 1   
    25    11    38 1   
    26    12    13 ar  
    27    12    29 1   
    28    13    30 1   
    29    14    31 1   
    30    14    32 1   
    31    16    33 1   
    32    18    19 ar  
    33    18    34 1   
    34    19    20 ar  
    35    19    35 1   
    36    20    21 1   
    37    21    22 2   
    38    21    23 1   
    39    23    36 1   
    40    23    37 1   
@<TRIPOS>SUBSTRUCTURE
     1 ROZ         1 TEMP              0 ****  ****    0 ROOT
