@<TRIPOS>MOLECULE
ROZ
   38    40     1     0     0
SMALL
abcg2


@<TRIPOS>ATOM
      1 N1         -16.4110     4.3580    26.1950 nb         1 ROZ      -0.631000
      2 C4         -16.8140     6.5890    25.4090 ca         1 ROZ      -0.067000
      3 C5         -16.0010     5.4460    25.5870 ca         1 ROZ       0.332900
      4 C6         -17.6800     4.3150    26.6710 ca         1 ROZ       0.306900
      5 C7         -18.5690     5.3630    26.5630 ca         1 ROZ      -0.054000
      6 C8         -20.3540     4.5380    28.0840 c          1 ROZ       0.602100
      7 C10        -22.3260     4.1690    29.6200 ca         1 ROZ      -0.065300
      8 C13        -23.1560     3.2240    32.1280 ca         1 ROZ      -0.094000
      9 C15        -22.8590     2.8880    29.7450 ca         1 ROZ      -0.084000
     10 C17        -18.9420     7.7160    25.7760 ca         1 ROZ      -0.049000
     11 C14        -23.2660     2.4350    30.9920 ca         1 ROZ       0.126000
     12 C12        -22.6240     4.5020    31.9960 ca         1 ROZ      -0.099000
     13 C11        -22.2140     4.9720    30.7550 ca         1 ROZ      -0.092000
     14 C9         -21.8620     4.6710    28.2820 c3         1 ROZ      -0.109100
     15 O1         -19.6480     3.8230    28.7760 o          1 ROZ      -0.556100
     16 N2         -19.8850     5.2850    27.0390 ns         1 ROZ      -0.158000
     17 C16        -18.1400     6.5640    25.9200 ca         1 ROZ      -0.049000
     18 C3         -16.3430     7.7480    24.7530 ca         1 ROZ      -0.085000
     19 C2         -17.1510     8.8430    24.6040 ca         1 ROZ      -0.094000
     20 C1         -18.4680     8.8320    25.1240 ca         1 ROZ      -0.137600
     21 C          -19.3930    10.0120    25.0140 c          1 ROZ       0.610700
     22 O          -20.3660    10.1290    25.7600 o          1 ROZ      -0.610100
     23 N          -19.1020    10.9260    24.0690 nt         1 ROZ      -0.600000
     24 H1         -14.9850     5.4550    25.2030 h4         1 ROZ       0.024100
     25 H2         -17.9800     3.3980    27.1540 h4         1 ROZ       0.049100
     26 H3         -23.4810     2.8500    33.0890 ha         1 ROZ       0.131000
     27 H4         -22.9580     2.2500    28.8770 ha         1 ROZ       0.128000
     28 H5         -19.9410     7.7560    26.1840 ha         1 ROZ       0.133000
     29 H6         -22.5340     5.1330    32.8710 ha         1 ROZ       0.120000
     30 H7         -21.8030     5.9700    30.6640 ha         1 ROZ       0.118000
     31 H8         -22.1460     5.7170    28.1480 hc         1 ROZ       0.069700
     32 H9         -22.3390     4.1080    27.4760 hc         1 ROZ       0.069700
     33 H10        -20.5620     5.8750    26.5800 hn         1 ROZ       0.155000
     34 H11        -15.3280     7.7590    24.3750 ha         1 ROZ       0.123000
     35 H12        -16.7590     9.7250    24.1160 ha         1 ROZ       0.115000
     36 H13        -19.7240    11.7100    23.9480 hn         1 ROZ       0.317500
     37 H14        -18.3840    10.7850    23.3790 hn         1 ROZ       0.317500
     38 CL         -23.9390     0.8210    31.1310 cl         1 ROZ      -0.213000
@<TRIPOS>BOND
     1     1     3 ar  
     2     1     4 ar  
     3     2     3 ar  
     4     2    17 ar  
     5     2    18 ar  
     6     3    24 1   
     7     4     5 ar  
     8     4    25 1   
     9     5    16 1   
    10     5    17 ar  
    11     6    14 1   
    12     6    15 2   
    13     6    16 1   
    14     7     9 ar  
    15     7    13 ar  
    16     7    14 1   
    17     8    11 ar  
    18     8    12 ar  
    19     8    26 1   
    20     9    11 ar  
    21     9    27 1   
    22    10    17 ar  
    23    10    20 ar  
    24    10    28 1   
    25    11    38 1   
    26    12    13 ar  
    27    12    29 1   
    28    13    30 1   
    29    14    31 1   
    30    14    32 1   
    31    16    33 1   
    32    18    19 ar  
    33    18    34 1   
    34    19    20 ar  
    35    19    35 1   
    36    20    21 1   
    37    21    22 2   
    38    21    23 1   
    39    23    36 1   
    40    23    37 1   
@<TRIPOS>SUBSTRUCTURE
     1 ROZ         1 TEMP              0 ****  ****    0 ROOT
