@<TRIPOS>MOLECULE
RP0
   32    33     1     0     0
SMALL
abcg2


@<TRIPOS>ATOM
      1 C16        -46.4560   -28.1700     1.6190 ca         1 RP0       0.024000
      2 C17        -47.7500   -27.8770     2.1440 cg         1 RP0       0.315000
      3 C14        -46.0230   -27.6370     0.3980 ca         1 RP0       0.002100
      4 C13        -44.7610   -27.9420    -0.0880 ca         1 RP0      -0.073000
      5 C12        -43.9360   -28.7950     0.6310 ca         1 RP0      -0.120000
      6 C11        -44.3580   -29.3310     1.8470 ca         1 RP0       0.241000
      7 C19        -45.6100   -29.0090     2.3480 ca         1 RP0      -0.063000
      8 C02        -45.0950   -32.1940     0.0510 cc         1 RP0       0.322300
      9 C04        -43.3540   -32.8580    -1.1470 cc         1 RP0       0.071500
     10 C05        -42.8970   -32.7200     0.1240 cd         1 RP0      -0.069000
     11 C06        -44.0220   -32.3040     0.9020 cd         1 RP0      -0.439500
     12 N10        -43.5200   -30.2280     2.5680 nu         1 RP0      -0.857100
     13 N18        -48.7920   -27.6620     2.5860 n1         1 RP0      -0.413000
     14 N22        -41.4440   -33.5970    -2.3800 nt         1 RP0      -0.602000
     15 O03        -44.6900   -32.5390    -1.1890 os         1 RP0      -0.201000
     16 O08        -42.8330   -32.5230     3.1940 o          1 RP0      -0.534000
     17 O09        -45.2590   -31.9380     3.1520 o          1 RP0      -0.534000
     18 O21        -43.4040   -33.2600    -3.4710 o          1 RP0      -0.574100
     19 S07        -43.9430   -31.8450     2.5800 sy         1 RP0       1.213600
     20 BR15       -47.1580   -26.4910    -0.6050 br         1 RP0      -0.058100
     21 H131       -44.4280   -27.5300    -1.0300 ha         1 RP0       0.142000
     22 H121       -42.9620   -29.0590     0.2380 ha         1 RP0       0.125000
     23 H191       -45.9400   -29.4120     3.2940 ha         1 RP0       0.163000
     24 H012       -47.1640   -32.5170    -0.2580 hc         1 RP0       0.085033
     25 H013       -46.7610   -31.6630     1.2470 hc         1 RP0       0.085033
     26 H011       -46.6660   -30.8230    -0.3110 hc         1 RP0       0.085033
     27 H051       -41.8980   -32.8910     0.4880 ha         1 RP0       0.156000
     28 H101       -42.5350   -30.1400     2.3320 hn         1 RP0       0.484000
     29 H222       -40.9780   -33.8650    -3.2320 hn         1 RP0       0.325000
     30 H221       -40.9140   -33.5960    -1.5250 hn         1 RP0       0.325000
     31 C20        -42.7450   -33.2550    -2.4330 c          1 RP0       0.534600
     32 C01        -46.5050   -31.7760     0.1980 c3         1 RP0      -0.160400
@<TRIPOS>BOND
     1     1     2 1   
     2     1     3 ar  
     3     1     7 ar  
     4     2    13 3   
     5     3     4 ar  
     6     3    20 1   
     7     4     5 ar  
     8     4    21 1   
     9     5     6 ar  
    10     5    22 1   
    11     6     7 ar  
    12     6    12 1   
    13     7    23 1   
    14     8    11 2   
    15     8    15 1   
    16     8    32 1   
    17     9    10 2   
    18     9    15 1   
    19     9    31 1   
    20    10    11 1   
    21    10    27 1   
    22    11    19 1   
    23    12    19 1   
    24    12    28 1   
    25    14    29 1   
    26    14    30 1   
    27    14    31 1   
    28    16    19 2   
    29    17    19 2   
    30    18    31 2   
    31    24    32 1   
    32    25    32 1   
    33    26    32 1   
@<TRIPOS>SUBSTRUCTURE
     1 RP0         1 TEMP              0 ****  ****    0 ROOT
