@<TRIPOS>MOLECULE
RP0
   32    33     1     0     0
SMALL
No Charge or Current Charge


@<TRIPOS>ATOM
      1 C16        -46.0470   -28.3390     0.7510 ca         1 RP0       0.024000
      2 C17        -47.4770   -28.2150     0.6530 cg         1 RP0       0.315000
      3 C14        -45.1860   -27.5530    -0.0470 ca         1 RP0       0.002100
      4 C13        -43.7940   -27.6920     0.0790 ca         1 RP0      -0.073000
      5 C12        -43.2560   -28.6180     0.9900 ca         1 RP0      -0.120000
      6 C11        -44.1040   -29.4160     1.7750 ca         1 RP0       0.241000
      7 C19        -45.4980   -29.2620     1.6630 ca         1 RP0      -0.063000
      8 C02        -45.4450   -32.6300     0.5590 cc         1 RP0       0.322300
      9 C04        -43.9620   -32.6010    -1.0830 cc         1 RP0       0.071500
     10 C05        -43.2930   -32.2890     0.0720 cd         1 RP0      -0.069000
     11 C06        -44.2420   -32.2990     1.1250 cd         1 RP0      -0.439500
     12 N10        -43.5460   -30.3420     2.6530 nu         1 RP0      -0.857100
     13 N18        -48.6390   -28.1260     0.5800 n1         1 RP0      -0.413000
     14 N22        -42.0750   -32.4690    -2.6040 nt         1 RP0      -0.602000
     15 O03        -45.2920   -32.8150    -0.7960 os         1 RP0      -0.201000
     16 O08        -42.7150   -32.5640     3.2950 o          1 RP0      -0.534000
     17 O09        -45.2030   -31.9550     3.6170 o          1 RP0      -0.534000
     18 O21        -44.0640   -32.9900    -3.4470 o          1 RP0      -0.574100
     19 S07        -43.9640   -31.9550     2.8370 sy         1 RP0       1.213600
     20 Br15       -45.8710   -26.2780    -1.3120 br         1 RP0      -0.058100
     21 H131       -43.1290   -27.0840    -0.5310 ha         1 RP0       0.142000
     22 H121       -42.1780   -28.7210     1.0740 ha         1 RP0       0.125000
     23 H191       -46.1550   -29.8530     2.2920 ha         1 RP0       0.163000
     24 H012       -47.5120   -33.1950     0.3790 hc         1 RP0       0.085033
     25 H013       -46.7880   -33.5670     1.9510 hc         1 RP0       0.085033
     26 H011       -47.2130   -31.8920     1.5380 hc         1 RP0       0.085033
     27 H051       -42.2330   -32.0660     0.1650 ha         1 RP0       0.156000
     28 H101       -42.5370   -30.3610     2.6910 hn         1 RP0       0.484000
     29 H222       -41.6610   -32.5310    -3.5220 hn         1 RP0       0.325000
     30 H221       -41.5060   -32.2340    -1.8050 hn         1 RP0       0.325000
     31 C20        -43.4030   -32.7060    -2.4610 c          1 RP0       0.534600
     32 C01        -46.8130   -32.8300     1.1400 c3         1 RP0      -0.160400
@<TRIPOS>BOND
     1     1     2 1   
     2     1     3 ar  
     3     1     7 ar  
     4     2    13 3   
     5     3     4 ar  
     6     3    20 1   
     7     4     5 ar  
     8     4    21 1   
     9     5     6 ar  
    10     5    22 1   
    11     6     7 ar  
    12     6    12 1   
    13     7    23 1   
    14     8    11 2   
    15     8    15 1   
    16     8    32 1   
    17     9    10 2   
    18     9    15 1   
    19     9    31 1   
    20    10    11 1   
    21    10    27 1   
    22    11    19 1   
    23    12    19 1   
    24    12    28 1   
    25    14    29 1   
    26    14    30 1   
    27    14    31 1   
    28    16    19 2   
    29    17    19 2   
    30    18    31 2   
    31    24    32 1   
    32    25    32 1   
    33    26    32 1   
@<TRIPOS>SUBSTRUCTURE
     1 RP0         1 TEMP              0 ****  ****    0 ROOT
