@<TRIPOS>MOLECULE
RP1
   34    37     1     0     0
SMALL
bcc


@<TRIPOS>ATOM
      1 P           -3.5050     0.2590     0.8670 p5         1 RP1       1.167200
      2 S1P         -5.2030    -0.4930     1.3000 s          1 RP1      -0.479000
      3 O2P         -2.8170     1.2120     1.9560 oh         1 RP1      -0.720400
      4 O5          -3.5340     1.1070    -0.4990 os         1 RP1      -0.541200
      5 C5          -2.3290     1.5280    -1.1670 c6         1 RP1       0.179400
      6 C4          -1.4920     0.2780    -1.3310 c5         1 RP1       0.048100
      7 O4          -0.2160     0.4930    -1.8960 os         1 RP1      -0.381600
      8 C3          -1.1670    -0.3140     0.0280 c5         1 RP1       0.118100
      9 O3          -2.3250    -0.8240     0.6650 os         1 RP1      -0.458200
     10 C2          -0.0910    -1.3150    -0.3360 c5         1 RP1       0.132100
     11 O2          -0.6830    -2.4140    -0.9540 oh         1 RP1      -0.564800
     12 C1           0.6910    -0.4340    -1.3520 c5         1 RP1       0.224800
     13 N9           1.7630     0.3040    -0.7110 na         1 RP1      -0.283000
     14 C8           1.8390     1.6410    -0.4210 cc         1 RP1       0.413700
     15 N7           2.9470     1.9760     0.1690 nd         1 RP1      -0.544100
     16 C7           3.6440     0.8030     0.2780 ca         1 RP1      -0.228200
     17 C6           4.9000     0.4790     0.8220 ca         1 RP1       0.784200
     18 N6           5.7070     1.3950     1.3630 nv         1 RP1      -0.947500
     19 N1           5.2920    -0.7980     0.7750 nb         1 RP1      -0.823000
     20 C10          4.4950    -1.7030     0.2140 ca         1 RP1       0.717900
     21 N3           3.3020    -1.5250    -0.3240 nb         1 RP1      -0.765000
     22 C9           2.9270    -0.2500    -0.2640 ca         1 RP1       0.451800
     23 HOP2        -3.3800     1.9210     2.2880 ho         1 RP1       0.494000
     24 H5'1        -1.8120     2.2950    -0.5830 h1         1 RP1       0.078700
     25 H5'2        -2.6380     1.9600    -2.1160 h1         1 RP1       0.078700
     26 H4          -2.0610    -0.4410    -1.9330 h1         1 RP1       0.107700
     27 H3          -0.6990     0.4500     0.6620 h1         1 RP1       0.077700
     28 H2           0.5360    -1.5990     0.5160 h1         1 RP1       0.093700
     29 HO2         -0.0260    -3.1090    -1.0580 ho         1 RP1       0.429000
     30 H1           1.1330    -1.0480    -2.1430 h2         1 RP1       0.112700
     31 H8           1.0510     2.3290    -0.6820 h5         1 RP1       0.071800
     32 HN61         6.5640     1.1200     1.8070 hn         1 RP1       0.452800
     33 HN62         5.4060     2.3460     1.4710 hn         1 RP1       0.452800
     34 H6           4.8750    -2.7190     0.2080 h5         1 RP1       0.050100
@<TRIPOS>BOND
     1     1     2 2   
     2     1     3 1   
     3     1     4 1   
     4     1     9 1   
     5     3    23 1   
     6     4     5 1   
     7     5     6 1   
     8     5    24 1   
     9     5    25 1   
    10     6     7 1   
    11     6     8 1   
    12     6    26 1   
    13     7    12 1   
    14     8     9 1   
    15     8    10 1   
    16     8    27 1   
    17    10    11 1   
    18    10    12 1   
    19    10    28 1   
    20    11    29 1   
    21    12    13 1   
    22    12    30 1   
    23    13    14 1   
    24    13    22 1   
    25    14    15 2   
    26    14    31 1   
    27    15    16 1   
    28    16    17 ar  
    29    16    22 ar  
    30    17    18 1   
    31    17    19 ar  
    32    18    32 1   
    33    18    33 1   
    34    19    20 ar  
    35    20    21 ar  
    36    20    34 1   
    37    21    22 ar  
@<TRIPOS>SUBSTRUCTURE
     1 RP1         1 TEMP              0 ****  ****    0 ROOT
