@<TRIPOS>MOLECULE
RP1
   34    37     1     0     0
SMALL
No Charge or Current Charge


@<TRIPOS>ATOM
      1 P           -3.8980     0.8320     0.1750 p5         1 RP1       1.167200
      2 S1P         -5.7790     0.4840     0.5620 s          1 RP1      -0.479000
      3 O2P         -3.3120     2.1680     0.8500 oh         1 RP1      -0.519400
      4 O5          -3.5230     1.0470    -1.3980 os         1 RP1      -0.364400
      5 C5          -2.1450     1.1400    -1.8430 c6         1 RP1       0.002600
      6 C4          -1.3520    -0.0330    -1.2390 c5         1 RP1       0.071300
      7 O4           0.0710     0.0450    -1.4030 os         1 RP1      -0.428000
      8 C3          -1.4550    -0.0850     0.2900 c5         1 RP1      -0.058700
      9 O3          -2.8410    -0.3210     0.6460 os         1 RP1      -0.281400
     10 C2          -0.5150    -1.2880     0.5700 c5         1 RP1       0.155300
     11 O2          -1.1130    -2.5430     0.1840 oh         1 RP1      -0.687000
     12 C1           0.6620    -0.8560    -0.4130 c5         1 RP1       0.277300
     13 N9           1.8240    -0.1830     0.1750 na         1 RP1      -0.312300
     14 C8           1.8280     0.6070     1.3320 cc         1 RP1       0.413700
     15 N7           3.0660     1.0540     1.6180 nd         1 RP1      -0.544100
     16 C7           3.8470     0.5170     0.5910 ca         1 RP1      -0.097600
     17 C6           5.2330     0.6390     0.3580 ca         1 RP1       0.455900
     18 N6           6.0530     1.3570     1.1710 nv         1 RP1      -1.057900
     19 N1           5.8180     0.0340    -0.6880 nb         1 RP1      -0.297000
     20 C10          4.9990    -0.6850    -1.4940 ca         1 RP1       0.191900
     21 N3           3.6620    -0.8540    -1.3480 nb         1 RP1      -0.239000
     22 C9           3.1080    -0.2350    -0.2870 ca         1 RP1       0.123500
     23 HOP2        -3.8570     2.8830     0.4800 ho         1 RP1       0.293000
     24 H5'1        -1.7200     2.1020    -1.5210 h1         1 RP1       0.078700
     25 H5'2        -2.1160     1.0960    -2.9410 h1         1 RP1       0.078700
     26 H4          -1.7140    -0.9620    -1.7060 h1         1 RP1       0.107700
     27 H3          -1.0940     0.8390     0.7640 h1         1 RP1       0.077700
     28 H2          -0.1890    -1.3130     1.6210 h1         1 RP1       0.093700
     29 HO2         -0.6350    -3.2610     0.6620 ho         1 RP1       0.528000
     30 H1           1.0580    -1.7480    -0.9150 h2         1 RP1       0.112700
     31 H8           0.9320     0.8130     1.9040 h5         1 RP1       0.071800
     32 HN61         7.0500     1.1670     1.1300 hn         1 RP1       0.508000
     33 HN62         5.6780     1.6330     2.0760 hn         1 RP1       0.508000
     34 H6           5.4630    -1.1800    -2.3460 h5         1 RP1       0.050100
@<TRIPOS>BOND
     1     1     2 2   
     2     1     3 1   
     3     1     4 1   
     4     1     9 1   
     5     3    23 1   
     6     4     5 1   
     7     5     6 1   
     8     5    24 1   
     9     5    25 1   
    10     6     7 1   
    11     6     8 1   
    12     6    26 1   
    13     7    12 1   
    14     8     9 1   
    15     8    10 1   
    16     8    27 1   
    17    10    11 1   
    18    10    12 1   
    19    10    28 1   
    20    11    29 1   
    21    12    13 1   
    22    12    30 1   
    23    13    14 1   
    24    13    22 1   
    25    14    15 2   
    26    14    31 1   
    27    15    16 1   
    28    16    17 ar  
    29    16    22 ar  
    30    17    18 1   
    31    17    19 ar  
    32    18    32 1   
    33    18    33 1   
    34    19    20 ar  
    35    20    21 ar  
    36    20    34 1   
    37    21    22 ar  
@<TRIPOS>SUBSTRUCTURE
     1 RP1         1 TEMP              0 ****  ****    0 ROOT
