@<TRIPOS>MOLECULE
RP2
   34    37     1     0     0
SMALL
abcg2


@<TRIPOS>ATOM
      1 P           -4.1880    -0.2020     0.1820 p5         1 RP2       1.167200
      2 BR           0.7040     2.3490     0.4170 br         1 RP2       0.023700
      3 N1           5.5190    -1.5680    -0.0520 nb         1 RP2      -0.297000
      4 C2           4.5340    -2.3870    -0.4060 ca         1 RP2       0.198900
      5 N3           3.2400    -2.1250    -0.4980 nb         1 RP2      -0.234000
      6 C4           2.9740    -0.8630    -0.1860 ca         1 RP2       0.143500
      7 C5           3.8850     0.1010     0.1980 ca         1 RP2      -0.103600
      8 C6           5.2340    -0.2980     0.2610 ca         1 RP2       0.460900
      9 N6           6.2160     0.5250     0.6220 nv         1 RP2      -1.053900
     10 N7           3.2560     1.2920     0.4480 nc         1 RP2      -0.507100
     11 C8           2.0070     1.0480     0.2270 cd         1 RP2       0.362800
     12 N9           1.7480    -0.2430    -0.1680 na         1 RP2      -0.283300
     13 C1           0.5210    -0.9230    -0.4970 c5         1 RP2       0.261300
     14 S1P         -5.8270    -1.1690     0.3580 s          1 RP2      -0.482000
     15 C7          -0.4260    -1.2680     0.7050 c5         1 RP2       0.153300
     16 O2          -0.7570    -2.6210     0.7190 oh         1 RP2      -0.677000
     17 O2P         -4.0540     1.1760     0.9840 oh         1 RP2      -0.518400
     18 C3          -1.6550    -0.4600     0.3190 c5         1 RP2      -0.058700
     19 O3          -2.9010    -0.9850     0.7530 os         1 RP2      -0.281400
     20 C9          -1.5640    -0.4430    -1.1990 c5         1 RP2       0.072300
     21 O4          -0.2070    -0.1450    -1.4200 os         1 RP2      -0.419000
     22 C10         -2.5310     0.5700    -1.7680 c6         1 RP2       0.009600
     23 O5          -3.8420     0.1350    -1.3510 os         1 RP2      -0.367400
     24 HN6          7.1700     0.2070     0.6210 hn         1 RP2       0.512000
     25 HN6A         6.0380     1.4940     0.8190 hn         1 RP2       0.512000
     26 H1           0.8320    -1.8690    -0.9520 h2         1 RP2       0.115700
     27 H2           0.0090    -0.9390     1.6540 h1         1 RP2       0.077700
     28 HO2         -0.0260    -3.1190     1.1010 ho         1 RP2       0.524000
     29 HO2P        -4.7600     1.8150     0.8140 ho         1 RP2       0.293000
     30 H3          -1.5300     0.5570     0.7030 h1         1 RP2       0.080700
     31 H4          -1.8180    -1.4350    -1.5990 h1         1 RP2       0.098700
     32 H5          -2.3240     1.5790    -1.4040 h1         1 RP2       0.081700
     33 H5'A        -2.5430     0.5830    -2.8570 h1         1 RP2       0.081700
     34 H6           4.8340    -3.4010    -0.6470 h5         1 RP2       0.053100
@<TRIPOS>BOND
     1     1    14 2   
     2     1    17 1   
     3     1    19 1   
     4     1    23 1   
     5     2    11 1   
     6     3     4 ar  
     7     3     8 ar  
     8     4     5 ar  
     9     4    34 1   
    10     5     6 ar  
    11     6     7 ar  
    12     6    12 1   
    13     7     8 ar  
    14     7    10 1   
    15     8     9 1   
    16     9    24 1   
    17     9    25 1   
    18    10    11 2   
    19    11    12 1   
    20    12    13 1   
    21    13    15 1   
    22    13    21 1   
    23    13    26 1   
    24    15    16 1   
    25    15    18 1   
    26    15    27 1   
    27    16    28 1   
    28    17    29 1   
    29    18    19 1   
    30    18    20 1   
    31    18    30 1   
    32    20    21 1   
    33    20    22 1   
    34    20    31 1   
    35    22    23 1   
    36    22    32 1   
    37    22    33 1   
@<TRIPOS>SUBSTRUCTURE
     1 RP2         1 TEMP              0 ****  ****    0 ROOT
