@<TRIPOS>MOLECULE
RP2
   34    37     1     0     0
SMALL
No Charge or Current Charge


@<TRIPOS>ATOM
      1 P           -4.0480     0.0000     0.5760 p5         1 RP2       1.167200
      2 Br           0.5830     2.3950    -0.2760 br         1 RP2       0.023700
      3 N1           5.5820    -1.4440     0.4600 nb         1 RP2      -0.297000
      4 C2           4.6780    -2.3710     0.0660 ca         1 RP2       0.198900
      5 N3           3.3800    -2.1510    -0.2520 nb         1 RP2      -0.234000
      6 C4           2.9590    -0.8730    -0.1650 ca         1 RP2       0.143500
      7 C5           3.7950     0.1400     0.2270 ca         1 RP2      -0.103600
      8 C6           5.1310    -0.1830     0.5420 ca         1 RP2       0.460900
      9 N6           6.0370     0.7510     0.9360 nv         1 RP2      -1.053900
     10 N7           3.1610     1.3740     0.2480 nc         1 RP2      -0.507100
     11 C8           1.9160     1.0530    -0.1430 cd         1 RP2       0.362800
     12 N9           1.7270    -0.3240    -0.4160 na         1 RP2      -0.283300
     13 C1           0.5210    -1.0520    -0.8350 c5         1 RP2       0.261300
     14 S1P         -5.7720    -0.6050     1.2610 s          1 RP2      -0.482000
     15 C7          -0.3890    -1.6230     0.3370 c5         1 RP2       0.153300
     16 O2          -0.8670    -2.9530     0.0520 oh         1 RP2      -0.677000
     17 O2P         -3.5390     1.3990     1.1840 oh         1 RP2      -0.518400
     18 C3          -1.5220    -0.5680     0.2530 c5         1 RP2      -0.058700
     19 O3          -2.7820    -1.0010     0.8240 os         1 RP2      -0.281400
     20 C9          -1.6870    -0.4880    -1.2710 c5         1 RP2       0.072300
     21 O4          -0.3360    -0.2110    -1.6670 os         1 RP2      -0.419000
     22 C10         -2.7230     0.5680    -1.6960 c6         1 RP2       0.009600
     23 O5          -3.9800     0.2790    -1.0300 os         1 RP2      -0.367400
     24 HN6          7.0240     0.5170     0.8620 hn         1 RP2       0.512000
     25 HN6A         5.7880     1.7260     0.7920 hn         1 RP2       0.512000
     26 H1           0.8880    -1.8930    -1.4370 h2         1 RP2       0.115700
     27 H2           0.1250    -1.5850     1.3080 h1         1 RP2       0.077700
     28 HO2         -0.2150    -3.5880     0.4320 ho         1 RP2       0.524000
     29 HO2P        -4.2300     2.0340     0.9350 ho         1 RP2       0.293000
     30 H3          -1.2160     0.3870     0.7000 h1         1 RP2       0.080700
     31 H4          -1.9920    -1.4550    -1.7000 h1         1 RP2       0.098700
     32 H5          -2.3850     1.5770    -1.4190 h1         1 RP2       0.081700
     33 H5'A        -2.8740     0.5380    -2.7850 h1         1 RP2       0.081700
     34 H6           5.0300    -3.3990    -0.0020 h5         1 RP2       0.053100
@<TRIPOS>BOND
     1     1    14 2   
     2     1    17 1   
     3     1    19 1   
     4     1    23 1   
     5     2    11 1   
     6     3     4 ar  
     7     3     8 ar  
     8     4     5 ar  
     9     4    34 1   
    10     5     6 ar  
    11     6     7 ar  
    12     6    12 1   
    13     7     8 ar  
    14     7    10 1   
    15     8     9 1   
    16     9    24 1   
    17     9    25 1   
    18    10    11 2   
    19    11    12 1   
    20    12    13 1   
    21    13    15 1   
    22    13    21 1   
    23    13    26 1   
    24    15    16 1   
    25    15    18 1   
    26    15    27 1   
    27    16    28 1   
    28    17    29 1   
    29    18    19 1   
    30    18    20 1   
    31    18    30 1   
    32    20    21 1   
    33    20    22 1   
    34    20    31 1   
    35    22    23 1   
    36    22    32 1   
    37    22    33 1   
@<TRIPOS>SUBSTRUCTURE
     1 RP2         1 TEMP              0 ****  ****    0 ROOT
