@<TRIPOS>MOLECULE
RP4
   42    44     1     0     0
SMALL
No Charge or Current Charge


@<TRIPOS>ATOM
      1 O3          -2.5160    -2.5080    -1.7780 o          1 RP4      -0.704000
      2 C2          -3.5480    -1.8720    -1.6160 c          1 RP4       0.702000
      3 O1          -4.5140    -2.0250    -2.3580 o          1 RP4      -0.704000
      4 C4          -3.4370    -0.4430    -0.9280 c6         1 RP4       0.047200
      5 O5          -4.4500     0.4300    -1.4870 oh         1 RP4      -0.699000
      6 C12         -3.7060    -0.5910     0.5980 c6         1 RP4      -0.066400
      7 C10         -3.3040     0.6890     1.3610 c6         1 RP4       0.173300
      8 O11         -3.6540     0.5840     2.7520 oh         1 RP4      -0.672000
      9 C8          -1.7740     0.9460     1.2020 c6         1 RP4       0.189500
     10 O9          -1.4290     2.2280     1.7450 oh         1 RP4      -0.682000
     11 C7          -1.3240     0.8610    -0.2670 ce         1 RP4      -0.172400
     12 C6          -2.0760     0.2170    -1.1950 c2         1 RP4      -0.090200
     13 C13         -0.0020     1.4560    -0.6280 ca         1 RP4      -0.011800
     14 C25          0.1190     2.2720    -1.7690 ca         1 RP4      -0.111000
     15 C24          1.3590     2.8380    -2.1100 ca         1 RP4      -0.117000
     16 C23          2.4900     2.5880    -1.3150 ca         1 RP4      -0.116000
     17 C15          2.3820     1.7670    -0.1800 ca         1 RP4      -0.095000
     18 C14          1.1370     1.2070     0.1640 ca         1 RP4      -0.103000
     19 S16          3.8320     1.4520     0.8240 ss         1 RP4      -0.008000
     20 C17          3.6850    -0.3190     1.0540 ca         1 RP4      -0.133000
     21 C22          3.4460    -1.1650    -0.0460 ca         1 RP4      -0.065000
     22 C21          3.3300    -2.5530     0.1460 ca         1 RP4      -0.114500
     23 C20          3.4550    -3.0980     1.4360 ca         1 RP4      -0.067000
     24 C19          3.6980    -2.2540     2.5340 ca         1 RP4      -0.114500
     25 C18          3.8150    -0.8660     2.3430 ca         1 RP4      -0.065000
     26 H5          -4.9530    -0.1680    -2.0960 ho         1 RP4       0.479000
     27 H121        -3.1330    -1.4410     0.9930 hc         1 RP4       0.061200
     28 H122        -4.7640    -0.8240     0.7740 hc         1 RP4       0.061200
     29 H10         -3.8410     1.5380     0.9130 h1         1 RP4       0.053700
     30 H11         -3.1550     1.3100     3.1910 ho         1 RP4       0.437000
     31 H8          -1.2390     0.1580     1.7530 h1         1 RP4       0.038700
     32 H9          -0.6160     2.4990     1.2670 ho         1 RP4       0.437000
     33 H6          -1.7230     0.1390    -2.2240 ha         1 RP4       0.174000
     34 H25         -0.7520     2.4780    -2.3870 ha         1 RP4       0.125000
     35 H24          1.4440     3.4720    -2.9910 ha         1 RP4       0.100000
     36 H23          3.4480     3.0260    -1.5830 ha         1 RP4       0.108000
     37 H14          1.0590     0.5700     1.0420 ha         1 RP4       0.142000
     38 H22          3.3500    -0.7490    -1.0470 ha         1 RP4       0.120000
     39 H21          3.1430    -3.2050    -0.7040 ha         1 RP4       0.114500
     40 H20          3.3650    -4.1720     1.5840 ha         1 RP4       0.117000
     41 H19          3.7970    -2.6760     3.5310 ha         1 RP4       0.114500
     42 H18          4.0020    -0.2170     3.1950 ha         1 RP4       0.120000
@<TRIPOS>BOND
     1     1     2 1   
     2     2     3 1   
     3     2     4 1   
     4     4     5 1   
     5     4     6 1   
     6     4    12 1   
     7     5    26 1   
     8     6     7 1   
     9     6    27 1   
    10     6    28 1   
    11     7     8 1   
    12     7     9 1   
    13     7    29 1   
    14     8    30 1   
    15     9    10 1   
    16     9    11 1   
    17     9    31 1   
    18    10    32 1   
    19    11    12 2   
    20    11    13 1   
    21    12    33 1   
    22    13    14 ar  
    23    13    18 ar  
    24    14    15 ar  
    25    14    34 1   
    26    15    16 ar  
    27    15    35 1   
    28    16    17 ar  
    29    16    36 1   
    30    17    18 ar  
    31    17    19 1   
    32    18    37 1   
    33    19    20 1   
    34    20    21 ar  
    35    20    25 ar  
    36    21    22 ar  
    37    21    38 1   
    38    22    23 ar  
    39    22    39 1   
    40    23    24 ar  
    41    23    40 1   
    42    24    25 ar  
    43    24    41 1   
    44    25    42 1   
@<TRIPOS>SUBSTRUCTURE
     1 RP4         1 TEMP              0 ****  ****    0 ROOT
