@<TRIPOS>MOLECULE
RP4
   42    44     1     0     0
SMALL
abcg2


@<TRIPOS>ATOM
      1 O3          -1.5710    -2.7330     0.4070 o          1 RP4      -0.704000
      2 C2          -2.3620    -2.3900    -0.4780 c          1 RP4       0.702000
      3 O1          -2.9120    -3.1150    -1.3410 o          1 RP4      -0.704000
      4 C4          -2.7440    -0.8840    -0.5710 c6         1 RP4       0.047200
      5 O5          -3.5580    -0.7100    -1.7110 oh         1 RP4      -0.699000
      6 C12         -3.4820    -0.4610     0.7000 c6         1 RP4      -0.066400
      7 C10         -3.5610     1.0480     0.8040 c6         1 RP4       0.173300
      8 O11         -4.3800     1.3850     1.9010 oh         1 RP4      -0.672000
      9 C8          -2.1570     1.6130     0.9660 c6         1 RP4       0.189500
     10 O9          -2.2660     3.0210     0.9300 oh         1 RP4      -0.682000
     11 C7          -1.2240     1.0620    -0.0950 ce         1 RP4      -0.172400
     12 C6          -1.4950    -0.0670    -0.7490 c2         1 RP4      -0.090200
     13 C13          0.0650     1.7560    -0.3270 ca         1 RP4      -0.011800
     14 C25          0.1380     3.0390    -0.8690 ca         1 RP4      -0.111000
     15 C24          1.3740     3.6270    -1.0970 ca         1 RP4      -0.117000
     16 C23          2.5480     2.9550    -0.7920 ca         1 RP4      -0.116000
     17 C15          2.4840     1.6740    -0.2470 ca         1 RP4      -0.095000
     18 C14          1.2470     1.0860    -0.0110 ca         1 RP4      -0.103000
     19 S16          4.0250     0.8880     0.1390 ss         1 RP4      -0.008000
     20 C17          3.5470    -0.7940     0.4190 ca         1 RP4      -0.133000
     21 C22          3.2960    -1.6380    -0.6590 ca         1 RP4      -0.065000
     22 C21          2.9270    -2.9550    -0.4310 ca         1 RP4      -0.114500
     23 C20          2.8240    -3.4350     0.8690 ca         1 RP4      -0.067000
     24 C19          3.0900    -2.5960     1.9430 ca         1 RP4      -0.114500
     25 C18          3.4490    -1.2730     1.7210 ca         1 RP4      -0.065000
     26 H5          -3.6610    -1.6340    -2.0220 ho         1 RP4       0.479000
     27 H121        -2.9570    -0.8530     1.5750 hc         1 RP4       0.061200
     28 H122        -4.4850    -0.8950     0.6970 hc         1 RP4       0.061200
     29 H10         -3.9820     1.4530    -0.1300 h1         1 RP4       0.053700
     30 H11         -4.3770     2.3440     1.9900 ho         1 RP4       0.437000
     31 H8          -1.7730     1.2920     1.9480 h1         1 RP4       0.038700
     32 H9          -1.4860     3.4080     1.3400 ho         1 RP4       0.437000
     33 H6          -0.7890    -0.4230    -1.4950 ha         1 RP4       0.174000
     34 H25         -0.7650     3.5670    -1.1430 ha         1 RP4       0.125000
     35 H24          1.4280     4.6160    -1.5330 ha         1 RP4       0.100000
     36 H23          3.5050     3.4230    -0.9880 ha         1 RP4       0.108000
     37 H14          1.1840     0.0930     0.4150 ha         1 RP4       0.142000
     38 H22          3.3820    -1.2630    -1.6710 ha         1 RP4       0.120000
     39 H21          2.7260    -3.6080    -1.2690 ha         1 RP4       0.114500
     40 H20          2.5380    -4.4640     1.0450 ha         1 RP4       0.117000
     41 H19          3.0120    -2.9680     2.9560 ha         1 RP4       0.114500
     42 H18          3.6440    -0.6130     2.5560 ha         1 RP4       0.120000
@<TRIPOS>BOND
     1     1     2 1   
     2     2     3 1   
     3     2     4 1   
     4     4     5 1   
     5     4     6 1   
     6     4    12 1   
     7     5    26 1   
     8     6     7 1   
     9     6    27 1   
    10     6    28 1   
    11     7     8 1   
    12     7     9 1   
    13     7    29 1   
    14     8    30 1   
    15     9    10 1   
    16     9    11 1   
    17     9    31 1   
    18    10    32 1   
    19    11    12 2   
    20    11    13 1   
    21    12    33 1   
    22    13    14 ar  
    23    13    18 ar  
    24    14    15 ar  
    25    14    34 1   
    26    15    16 ar  
    27    15    35 1   
    28    16    17 ar  
    29    16    36 1   
    30    17    18 ar  
    31    17    19 1   
    32    18    37 1   
    33    19    20 1   
    34    20    21 ar  
    35    20    25 ar  
    36    21    22 ar  
    37    21    38 1   
    38    22    23 ar  
    39    22    39 1   
    40    23    24 ar  
    41    23    40 1   
    42    24    25 ar  
    43    24    41 1   
    44    25    42 1   
@<TRIPOS>SUBSTRUCTURE
     1 RP4         1 TEMP              0 ****  ****    0 ROOT
