@<TRIPOS>MOLECULE
RP7
   19    19     1     0     0
SMALL
abcg2


@<TRIPOS>ATOM
      1 C01         73.6030    42.2380    25.4430 c3         1 RP7       0.155100
      2 C03         75.2740    42.4930    27.1720 c6         1 RP7       0.191000
      3 C04         76.4390    41.6590    26.7220 c2         1 RP7      -0.239200
      4 C05         76.3100    40.3820    26.3760 c2         1 RP7      -0.210200
      5 C06         74.9990    39.6560    26.4530 c6         1 RP7       0.166500
      6 C08         73.9450    40.5250    27.1450 c6         1 RP7       0.135800
      7 N02         73.9870    41.9340    26.8090 n3         1 RP7      -0.712600
      8 O07         74.6450    39.2720    25.1340 oh         1 RP7      -0.653000
      9 H013        72.6530    41.7540    25.2160 h1         1 RP7       0.035033
     10 H011        73.4550    43.3150    25.3410 h1         1 RP7       0.035033
     11 H012        74.3240    41.9270    24.6790 h1         1 RP7       0.035033
     12 H031        75.3230    42.6180    28.2630 h1         1 RP7       0.058700
     13 H041        77.4140    42.1330    26.6950 ha         1 RP7       0.179000
     14 H051        77.1730    39.8170    26.0380 ha         1 RP7       0.182000
     15 H061        75.1420    38.7570    27.0720 h1         1 RP7       0.036700
     16 H081        72.9430    40.1330    26.9410 h1         1 RP7       0.054200
     17 H082        74.0950    40.4370    28.2270 h1         1 RP7       0.054200
     18 H071        73.8350    38.7530    25.1840 ho         1 RP7       0.439000
     19 H032        75.3570    43.5010    26.7580 h1         1 RP7       0.058700
@<TRIPOS>BOND
     1     1     7 1   
     2     1     9 1   
     3     1    10 1   
     4     1    11 1   
     5     2     3 1   
     6     2     7 1   
     7     2    12 1   
     8     2    19 1   
     9     3     4 2   
    10     3    13 1   
    11     4     5 1   
    12     4    14 1   
    13     5     6 1   
    14     5     8 1   
    15     5    15 1   
    16     6     7 1   
    17     6    16 1   
    18     6    17 1   
    19     8    18 1   
@<TRIPOS>SUBSTRUCTURE
     1 RP7         1 TEMP              0 ****  ****    0 ROOT
