@<TRIPOS>MOLECULE
RP7
   19    19     1     0     0
SMALL
No Charge or Current Charge


@<TRIPOS>ATOM
      1 C01         73.5990    42.2630    25.4140 c3         1 RP7       0.155100
      2 C03         75.2810    42.5250    27.2140 c6         1 RP7       0.191000
      3 C04         76.4460    41.6950    26.6880 c2         1 RP7      -0.239200
      4 C05         76.3320    40.3930    26.3640 c2         1 RP7      -0.210200
      5 C06         75.0180    39.6320    26.4630 c6         1 RP7       0.166500
      6 C08         73.9040    40.4990    27.1580 c6         1 RP7       0.135800
      7 N02         73.9640    41.9580    26.8190 n3         1 RP7      -0.712600
      8 O07         74.6320    39.2140    25.1460 oh         1 RP7      -0.653000
      9 H013        72.6200    41.8320    25.1640 h1         1 RP7       0.035033
     10 H011        73.5370    43.3490    25.2600 h1         1 RP7       0.035033
     11 H012        74.3420    41.8660    24.7100 h1         1 RP7       0.035033
     12 H031        75.3530    42.5620    28.3120 h1         1 RP7       0.058700
     13 H041        77.4020    42.2140    26.5980 ha         1 RP7       0.179000
     14 H051        77.1900    39.8270    25.9980 ha         1 RP7       0.182000
     15 H061        75.1810    38.7400    27.0870 h1         1 RP7       0.036700
     16 H081        72.9130    40.0840    26.9190 h1         1 RP7       0.054200
     17 H082        74.0260    40.3820    28.2450 h1         1 RP7       0.054200
     18 H071        73.7990    38.7040    25.2450 ho         1 RP7       0.439000
     19 H032        75.3780    43.5640    26.8630 h1         1 RP7       0.058700
@<TRIPOS>BOND
     1     1     7 1   
     2     1     9 1   
     3     1    10 1   
     4     1    11 1   
     5     2     3 1   
     6     2     7 1   
     7     2    12 1   
     8     2    19 1   
     9     3     4 2   
    10     3    13 1   
    11     4     5 1   
    12     4    14 1   
    13     5     6 1   
    14     5     8 1   
    15     5    15 1   
    16     6     7 1   
    17     6    16 1   
    18     6    17 1   
    19     8    18 1   
@<TRIPOS>SUBSTRUCTURE
     1 RP7         1 TEMP              0 ****  ****    0 ROOT
