@<TRIPOS>MOLECULE
RP8
   24    25     1     0     0
SMALL
No Charge or Current Charge


@<TRIPOS>ATOM
      1 C1          -0.6090    -0.9480     0.0060 ca         1 RP8       0.321000
      2 C2          -0.0090    -2.2140     0.1260 ca         1 RP8      -0.099000
      3 C3           1.3850    -2.3620     0.0760 ca         1 RP8      -0.093000
      4 C4           2.2010    -1.2360    -0.0990 ca         1 RP8      -0.131000
      5 C5           1.6380     0.0490    -0.2250 ca         1 RP8      -0.046300
      6 C6           0.2240     0.1950    -0.1690 ca         1 RP8      -0.106000
      7 N7          -1.9600    -0.8590     0.0610 nb         1 RP8      -0.763000
      8 C8          -2.5030     0.3420    -0.0540 ca         1 RP8       0.613900
      9 C9          -1.7930     1.5290    -0.2200 ca         1 RP8      -0.217000
     10 N10         -3.8320     0.2760     0.0270 nv         1 RP8      -1.066900
     11 C11         -0.3950     1.4620    -0.2800 ca         1 RP8      -0.015000
     12 C12          2.5840     1.2360    -0.4290 c3         1 RP8       0.191100
     13 N13          2.7740     2.0170     0.8100 n8         1 RP8      -0.996200
     14 H2          -0.6350    -3.0920     0.2600 ha         1 RP8       0.128000
     15 H3           1.8320    -3.3490     0.1710 ha         1 RP8       0.113000
     16 H4           3.2810    -1.3640    -0.1380 ha         1 RP8       0.108000
     17 H121         3.5670     0.8710    -0.7590 h1         1 RP8       0.034700
     18 H122         2.2000     1.8970    -1.2180 h1         1 RP8       0.034700
     19 H11          0.1790     2.3770    -0.4030 ha         1 RP8       0.131000
     20 H9          -2.3100     2.4800    -0.3000 ha         1 RP8       0.119000
     21 H101        -4.1840    -0.6030     0.3860 hn         1 RP8       0.474500
     22 H102        -4.3250     1.1120     0.3180 hn         1 RP8       0.474500
     23 H13          3.1980     1.4080     1.5190 hn         1 RP8       0.395500
     24 H1           3.4900     2.7350     0.6450 hn         1 RP8       0.395500
@<TRIPOS>BOND
     1     1     2 ar  
     2     1     6 ar  
     3     1     7 ar  
     4     2     3 ar  
     5     2    14 1   
     6     3     4 ar  
     7     3    15 1   
     8     4     5 ar  
     9     4    16 1   
    10     5     6 ar  
    11     5    12 1   
    12     6    11 ar  
    13     7     8 ar  
    14     8     9 ar  
    15     8    10 1   
    16     9    11 ar  
    17     9    20 1   
    18    10    21 1   
    19    10    22 1   
    20    11    19 1   
    21    12    13 1   
    22    12    17 1   
    23    12    18 1   
    24    13    23 1   
    25    13    24 1   
@<TRIPOS>SUBSTRUCTURE
     1 RP8         1 TEMP              0 ****  ****    0 ROOT
