@<TRIPOS>MOLECULE
RP8
   24    25     1     0     0
SMALL
bcc


@<TRIPOS>ATOM
      1 C1          -0.5520    -0.9680     0.0230 ca         1 RP8       0.451600
      2 C2           0.0390    -2.2490     0.1130 ca         1 RP8      -0.182300
      3 C3           1.3990    -2.3880     0.0350 ca         1 RP8      -0.111000
      4 C4           2.2250    -1.2630    -0.1410 ca         1 RP8      -0.149000
      5 C5           1.6920     0.0010    -0.2320 ca         1 RP8      -0.046300
      6 C6           0.2860     0.1620    -0.1380 ca         1 RP8      -0.171300
      7 N7          -1.9020    -0.8820     0.0960 nb         1 RP8      -0.763000
      8 C8          -2.4700     0.2970     0.0080 ca         1 RP8       0.679200
      9 C9          -1.7160     1.5000    -0.1490 ca         1 RP8      -0.300300
     10 N10         -3.8270     0.3640     0.0290 nv         1 RP8      -0.956500
     11 C11         -0.3630     1.4230    -0.2160 ca         1 RP8      -0.033000
     12 C12          2.6000     1.1890    -0.4220 c3         1 RP8       0.191100
     13 N13          2.5880     2.0570     0.7480 n8         1 RP8      -0.885800
     14 H2          -0.6060    -3.1090     0.2440 ha         1 RP8       0.146000
     15 H3           1.8460    -3.3710     0.1050 ha         1 RP8       0.131000
     16 H4           3.2980    -1.3970    -0.2080 ha         1 RP8       0.126000
     17 H121         3.5990     0.8190    -0.6850 h1         1 RP8       0.034700
     18 H122         2.2600     1.7750    -1.2800 h1         1 RP8       0.034700
     19 H11          0.2240     2.3260    -0.3120 ha         1 RP8       0.149000
     20 H9          -2.2260     2.4530    -0.2120 ha         1 RP8       0.137000
     21 H101        -4.3230    -0.4490     0.3540 hn         1 RP8       0.419300
     22 H102        -4.2610     1.2440     0.2490 hn         1 RP8       0.419300
     23 H13          3.0060     1.5680     1.5300 hn         1 RP8       0.340300
     24 H1           3.1820     2.8570     0.5710 hn         1 RP8       0.340300
@<TRIPOS>BOND
     1     1     2 ar  
     2     1     6 ar  
     3     1     7 ar  
     4     2     3 ar  
     5     2    14 1   
     6     3     4 ar  
     7     3    15 1   
     8     4     5 ar  
     9     4    16 1   
    10     5     6 ar  
    11     5    12 1   
    12     6    11 ar  
    13     7     8 ar  
    14     8     9 ar  
    15     8    10 1   
    16     9    11 ar  
    17     9    20 1   
    18    10    21 1   
    19    10    22 1   
    20    11    19 1   
    21    12    13 1   
    22    12    17 1   
    23    12    18 1   
    24    13    23 1   
    25    13    24 1   
@<TRIPOS>SUBSTRUCTURE
     1 RP8         1 TEMP              0 ****  ****    0 ROOT
