@<TRIPOS>MOLECULE
RP9
   36    38     1     0     0
SMALL
abcg2


@<TRIPOS>ATOM
      1 C4         -62.9370    26.5820     1.1500 ca         1 RP9      -0.074000
      2 C5         -63.4010    27.1260    -0.0560 ca         1 RP9      -0.131000
      3 C6         -63.9830    26.3080    -1.0030 ca         1 RP9      -0.039000
      4 C8         -64.2900    22.2900    -0.1760 cc         1 RP9       0.501800
      5 C1         -64.1120    24.9340    -0.7590 ca         1 RP9      -0.191600
      6 C11        -63.4650    22.1070    -4.0050 c          1 RP9       0.618100
      7 C2         -63.6440    24.3840     0.4510 ca         1 RP9       0.179400
      8 C3         -63.0550    25.2300     1.4030 ca         1 RP9      -0.102000
      9 C10        -64.2290    21.0850    -3.1890 c3         1 RP9      -0.181400
     10 C12        -63.7150    23.4290    -6.1040 ca         1 RP9       0.496900
     11 C13        -64.3600    24.4450    -8.0620 ca         1 RP9       0.402900
     12 C14        -63.3040    25.3410    -7.9840 ca         1 RP9      -0.105900
     13 C15        -62.4210    25.2640    -6.9170 ca         1 RP9      -0.024000
     14 C16        -62.6230    24.2900    -5.9530 ca         1 RP9      -0.171000
     15 C7         -64.7220    24.0620    -1.7580 c          1 RP9       0.579600
     16 N1         -64.7760    22.7190    -1.3810 n          1 RP9      -0.345300
     17 N2         -63.7510    23.0310     0.7270 nd         1 RP9      -0.613100
     18 N3         -64.0440    22.4180    -5.2020 ns         1 RP9      -0.310900
     19 N4         -64.5580    23.5090    -7.1370 nb         1 RP9      -0.734000
     20 O1         -65.1590    24.4320    -2.8420 o          1 RP9      -0.541000
     21 O2         -62.4340    22.6200    -3.5910 o          1 RP9      -0.571100
     22 BR1        -63.0810    26.6620    -9.3430 br         1 RP9      -0.093100
     23 H41        -62.4810    27.2280     1.8890 ha         1 RP9       0.118000
     24 H51        -63.3010    28.1870    -0.2430 ha         1 RP9       0.120000
     25 H61        -64.3460    26.7090    -1.9390 ha         1 RP9       0.136000
     26 H81        -64.3920    21.2240    -0.0020 h5         1 RP9       0.043800
     27 H31        -62.7000    24.7990     2.3300 ha         1 RP9       0.134000
     28 H102       -64.7100    20.3490    -3.8350 hc         1 RP9       0.075700
     29 H101       -63.5110    20.5700    -2.5520 hc         1 RP9       0.075700
     30 H131       -65.0630    24.4810    -8.8850 h4         1 RP9       0.035100
     31 H151       -61.5890    25.9490    -6.8320 ha         1 RP9       0.136000
     32 H161       -61.9620    24.1940    -5.1080 ha         1 RP9       0.162000
     33 H91        -66.0560    22.2390    -2.9380 h1         1 RP9       0.073200
     34 H92        -65.8210    20.9590    -1.7430 h1         1 RP9       0.073200
     35 H32        -64.8900    21.9240    -5.4500 hn         1 RP9       0.166000
     36 C9         -65.3190    21.7320    -2.3220 c3         1 RP9       0.098000
@<TRIPOS>BOND
     1     1     2 ar  
     2     1     8 ar  
     3     1    23 1   
     4     2     3 ar  
     5     2    24 1   
     6     3     5 ar  
     7     3    25 1   
     8     4    16 1   
     9     4    17 2   
    10     4    26 1   
    11     5     7 ar  
    12     5    15 1   
    13     6     9 1   
    14     6    18 1   
    15     6    21 2   
    16     7     8 ar  
    17     7    17 1   
    18     8    27 1   
    19     9    28 1   
    20     9    29 1   
    21     9    36 1   
    22    10    14 ar  
    23    10    18 1   
    24    10    19 ar  
    25    11    12 ar  
    26    11    19 ar  
    27    11    30 1   
    28    12    13 ar  
    29    12    22 1   
    30    13    14 ar  
    31    13    31 1   
    32    14    32 1   
    33    15    16 1   
    34    15    20 2   
    35    16    36 1   
    36    18    35 1   
    37    33    36 1   
    38    34    36 1   
@<TRIPOS>SUBSTRUCTURE
     1 RP9         1 TEMP              0 ****  ****    0 ROOT
