@<TRIPOS>MOLECULE
RP9
   36    38     1     0     0
SMALL
No Charge or Current Charge


@<TRIPOS>ATOM
      1 C4         -62.8600    26.4810     1.6040 ca         1 RP9      -0.074000
      2 C5         -63.4600    27.1410     0.5220 ca         1 RP9      -0.131000
      3 C6         -64.0900    26.3970    -0.4880 ca         1 RP9      -0.039000
      4 C8         -64.1150    22.2560    -0.1740 cc         1 RP9       0.501800
      5 C1         -64.1210    24.9860    -0.4160 ca         1 RP9      -0.191600
      6 C11        -63.6320    22.3370    -4.0970 c          1 RP9       0.618100
      7 C2         -63.5210    24.3180     0.6650 ca         1 RP9       0.179400
      8 C3         -62.8930    25.0780     1.6700 ca         1 RP9      -0.102000
      9 C10        -64.3740    21.2760    -3.2800 c3         1 RP9      -0.181400
     10 C12        -63.7220    23.4140    -6.3710 ca         1 RP9       0.496900
     11 C13        -63.9210    23.8240    -8.6370 ca         1 RP9       0.402900
     12 C14        -63.1260    24.9830    -8.5430 ca         1 RP9      -0.105900
     13 C15        -62.6180    25.3630    -7.2920 ca         1 RP9      -0.024000
     14 C16        -62.9260    24.5600    -6.1810 ca         1 RP9      -0.171000
     15 C7         -64.7820    24.1830    -1.4740 c          1 RP9       0.579600
     16 N1         -64.7400    22.8020    -1.2870 n          1 RP9      -0.345300
     17 N2         -63.5080    22.9250     0.8090 nd         1 RP9      -0.613100
     18 N3         -64.1180    22.5240    -5.3680 ns         1 RP9      -0.310900
     19 N4         -64.2210    23.0470    -7.5680 nb         1 RP9      -0.734000
     20 O1         -65.3230    24.7030    -2.4430 o          1 RP9      -0.541000
     21 O2         -62.6590    22.9290    -3.6520 o          1 RP9      -0.571100
     22 Br1        -62.7460    26.0320   -10.0990 br         1 RP9      -0.093100
     23 H41        -62.3700    27.0530     2.3890 ha         1 RP9       0.118000
     24 H51        -63.4370    28.2270     0.4640 ha         1 RP9       0.120000
     25 H61        -64.5530    26.9180    -1.3240 ha         1 RP9       0.136000
     26 H81        -64.1480    21.1740    -0.1380 h5         1 RP9       0.043800
     27 H31        -62.4260    24.5720     2.5120 ha         1 RP9       0.134000
     28 H102       -64.9500    20.6270    -3.9510 hc         1 RP9       0.075700
     29 H101       -63.6450    20.6830    -2.7170 hc         1 RP9       0.075700
     30 H131       -64.3310    23.5090    -9.5960 h4         1 RP9       0.035100
     31 H151       -62.0060    26.2570    -7.1830 ha         1 RP9       0.136000
     32 H161       -62.5610    24.8370    -5.1990 ha         1 RP9       0.162000
     33 H91        -66.1480    22.4530    -2.8470 h1         1 RP9       0.073200
     34 H92        -65.8940    21.1040    -1.7510 h1         1 RP9       0.073200
     35 H32        -64.8890    21.9280    -5.6340 hn         1 RP9       0.166000
     36 C9         -65.3740    21.9100    -2.2870 c3         1 RP9       0.098000
@<TRIPOS>BOND
     1     1     2 ar  
     2     1     8 ar  
     3     1    23 1   
     4     2     3 ar  
     5     2    24 1   
     6     3     5 ar  
     7     3    25 1   
     8     4    16 1   
     9     4    17 2   
    10     4    26 1   
    11     5     7 ar  
    12     5    15 1   
    13     6     9 1   
    14     6    18 1   
    15     6    21 2   
    16     7     8 ar  
    17     7    17 1   
    18     8    27 1   
    19     9    28 1   
    20     9    29 1   
    21     9    36 1   
    22    10    14 ar  
    23    10    18 1   
    24    10    19 ar  
    25    11    12 ar  
    26    11    19 ar  
    27    11    30 1   
    28    12    13 ar  
    29    12    22 1   
    30    13    14 ar  
    31    13    31 1   
    32    14    32 1   
    33    15    16 1   
    34    15    20 2   
    35    16    36 1   
    36    18    35 1   
    37    33    36 1   
    38    34    36 1   
@<TRIPOS>SUBSTRUCTURE
     1 RP9         1 TEMP              0 ****  ****    0 ROOT
