@<TRIPOS>MOLECULE
RPA
  119   119     1     0     0
SMALL
No Charge or Current Charge


@<TRIPOS>ATOM
      1 C1          27.9980    -1.4820    49.5750 c6         1 RPA       0.406300
      2 C2          29.1140    -1.4390    50.6770 c6         1 RPA       0.146300
      3 C3          28.8660    -2.5980    51.6830 c6         1 RPA       0.130300
      4 C4          27.4290    -2.5130    52.2780 c6         1 RPA       0.103300
      5 C5          26.3940    -2.4780    51.1040 c6         1 RPA       0.153300
      6 C6          24.9180    -2.3030    51.5970 c3         1 RPA       0.170600
      7 O1          28.1670    -0.3920    48.6310 os         1 RPA      -0.441000
      8 O2          30.4580    -1.5390    50.1480 oh         1 RPA      -0.708000
      9 O3          29.8440    -2.5760    52.7380 oh         1 RPA      -0.664000
     10 O4          27.2110    -3.6270    53.1730 oh         1 RPA      -0.723000
     11 O5          26.7080    -1.3770    50.2130 os         1 RPA      -0.467000
     12 O6          23.9630    -2.2260    50.5200 oh         1 RPA      -0.704000
     13 C31         27.5240    -0.4230    47.3300 c3         1 RPA       0.199000
     14 CM1         27.9880     0.8950    46.6640 c3         1 RPA      -0.100100
     15 CM2         25.9830    -0.4090    47.5290 c3         1 RPA      -0.100100
     16 C32         28.0560    -1.6840    46.5640 c3         1 RPA      -0.099400
     17 C33         27.9150    -1.7310    45.0160 c3         1 RPA      -0.068400
     18 C34         26.4710    -1.7630    44.4650 c3         1 RPA      -0.047200
     19 C35         26.4210    -2.1240    42.9880 c2         1 RPA      -0.092400
     20 CM3         26.5140    -3.6220    42.7260 c3         1 RPA      -0.057900
     21 C36         26.3110    -1.1890    42.0160 ce         1 RPA      -0.194000
     22 C7          26.2580    -1.4680    40.5740 ce         1 RPA      -0.163000
     23 C8          26.1410    -0.5040    39.6160 cf         1 RPA      -0.183000
     24 C9          26.0750    -0.6990    38.1640 cf         1 RPA      -0.057200
     25 CM4         26.5150    -2.0530    37.6120 c3         1 RPA      -0.056900
     26 C10         25.6910     0.3340    37.3560 ce         1 RPA      -0.182000
     27 C11         25.5690     0.3210    35.8890 ce         1 RPA      -0.166000
     28 C12         25.2380     1.4160    35.1460 cf         1 RPA      -0.179000
     29 C13         25.0820     1.4870    33.6890 cf         1 RPA      -0.056200
     30 CM5         25.6520     0.3380    32.8610 c3         1 RPA      -0.057900
     31 C14         24.5000     2.5850    33.1200 ce         1 RPA      -0.182000
     32 C15         24.2630     2.8280    31.6870 ce         1 RPA      -0.163000
     33 C16         23.7340     3.9760    31.1860 cf         1 RPA      -0.178000
     34 C17         23.4850     4.2140    29.7660 cf         1 RPA      -0.155000
     35 C18         23.0210     5.3650    29.1910 ce         1 RPA      -0.069200
     36 CM6         22.7400     6.6360    29.9980 c3         1 RPA       0.199800
     37 C19         22.8340     5.4300    27.7250 ce         1 RPA      -0.169000
     38 C20         22.2010     6.4080    27.0150 cf         1 RPA      -0.161000
     39 C21         22.0490     6.3900    25.5610 cf         1 RPA      -0.178000
     40 C22         21.4810     7.3530    24.7750 ce         1 RPA      -0.062200
     41 CM7         20.9610     8.6760    25.3310 c3         1 RPA      -0.053900
     42 C23         21.4150     7.1610    23.3110 ce         1 RPA      -0.177000
     43 C24         20.6870     7.8880    22.4160 cf         1 RPA      -0.169000
     44 C25         20.6680     7.6300    20.9770 cf         1 RPA      -0.184000
     45 C26         19.9510     8.3220    20.0400 ce         1 RPA      -0.060200
     46 CM8         19.0550     9.4910    20.4340 c3         1 RPA      -0.054900
     47 C27         19.9760     8.0100    18.5940 ce         1 RPA      -0.183000
     48 C28         20.6890     7.0320    17.9640 cf         1 RPA      -0.163000
     49 C29         20.6530     6.8030    16.5220 cf         1 RPA      -0.195000
     50 C30         21.3100     5.8220    15.8540 c2         1 RPA      -0.093400
     51 CM9         21.2450     5.6820    14.3430 c3         1 RPA      -0.058900
     52 CM0         22.2040     4.7750    16.5020 c3         1 RPA      -0.058900
     53 O11         21.3820     6.6760    30.4540 oh         1 RPA      -0.652000
     54 H1          28.0700    -2.4450    49.0510 h2         1 RPA       0.034700
     55 H2          29.0010    -0.4880    51.2190 h1         1 RPA       0.065700
     56 H3          28.9430    -3.5480    51.1310 h1         1 RPA       0.051700
     57 H4          27.3460    -1.5650    52.8320 h1         1 RPA       0.057700
     58 H5          26.4540    -3.4190    50.5380 h1         1 RPA       0.058700
     59 H6'1        24.6680    -3.1500    52.2500 h1         1 RPA       0.024700
     60 H6'2        24.8670    -1.3930    52.2090 h1         1 RPA       0.024700
     61 HO2         31.0070    -1.8190    50.9200 ho         1 RPA       0.521000
     62 HO3         29.4670    -3.1530    53.4420 ho         1 RPA       0.462000
     63 HO4         26.5130    -3.3620    53.8190 ho         1 RPA       0.511000
     64 HO6         23.0860    -2.0360    50.9280 ho         1 RPA       0.504000
     65 HM11        27.5080     1.0380    45.6900 hc         1 RPA       0.045700
     66 HM12        27.7320     1.7570    47.2910 hc         1 RPA       0.045700
     67 HM13        29.0740     0.8930    46.5130 hc         1 RPA       0.045700
     68 HM21        25.4620    -0.0870    46.6220 hc         1 RPA       0.045700
     69 HM22        25.6050    -1.4020    47.7960 hc         1 RPA       0.045700
     70 HM23        25.7030     0.2940    48.3220 hc         1 RPA       0.045700
     71 H21A        29.1240    -1.7920    46.7910 hc         1 RPA       0.053200
     72 H22         27.5710    -2.5820    46.9660 hc         1 RPA       0.053200
     73 H31         28.4580    -0.8930    44.5620 hc         1 RPA       0.041700
     74 H32         28.4320    -2.6360    44.6730 hc         1 RPA       0.041700
     75 H41         25.8650    -2.4640    45.0520 hc         1 RPA       0.046200
     76 H42         26.0180    -0.7760    44.6050 hc         1 RPA       0.046200
     77 HM31        25.5940    -3.9930    42.2580 hc         1 RPA       0.041367
     78 HM32        27.3490    -3.8510    42.0530 hc         1 RPA       0.041367
     79 HM33        26.6710    -4.2010    43.6440 hc         1 RPA       0.041367
     80 H6          26.2560    -0.1350    42.2980 ha         1 RPA       0.169000
     81 H7          26.3030    -2.5140    40.2720 ha         1 RPA       0.171000
     82 H8          26.0690     0.5290    39.9600 ha         1 RPA       0.171000
     83 HM41        26.9730    -1.9680    36.6210 hc         1 RPA       0.042367
     84 HM42        27.2740    -2.5270    38.2440 hc         1 RPA       0.042367
     85 HM43        25.6650    -2.7410    37.5320 hc         1 RPA       0.042367
     86 H10         25.4270     1.2780    37.8370 ha         1 RPA       0.170000
     87 H11         25.7300    -0.6300    35.3840 ha         1 RPA       0.173000
     88 H12         25.0490     2.3440    35.6890 ha         1 RPA       0.171000
     89 HM51        26.0040     0.6690    31.8780 hc         1 RPA       0.043367
     90 HM52        26.5230    -0.1220    33.3420 hc         1 RPA       0.043367
     91 HM53        24.9010    -0.4450    32.7030 hc         1 RPA       0.043367
     92 H14         24.1520     3.3740    33.7880 ha         1 RPA       0.171000
     93 H15         24.5190     2.0330    30.9860 ha         1 RPA       0.171000
     94 H16         23.4690     4.7660    31.8910 ha         1 RPA       0.176000
     95 H17         23.6870     3.3700    29.1040 ha         1 RPA       0.169000
     96 HM62        23.4270     6.6880    30.8520 h1         1 RPA       0.023700
     97 HM63        22.9610     7.5180    29.3830 h1         1 RPA       0.023700
     98 H19         23.2410     4.5890    27.1610 ha         1 RPA       0.167000
     99 H20         21.7560     7.2420    27.5560 ha         1 RPA       0.177000
    100 H21         22.4220     5.4940    25.0620 ha         1 RPA       0.167000
    101 HM71        21.0930     9.5000    24.6210 hc         1 RPA       0.041700
    102 HM72        19.8940     8.6100    25.5760 hc         1 RPA       0.041700
    103 HM73        21.4940     8.9850    26.2370 hc         1 RPA       0.041700
    104 H23         22.0050     6.3310    22.9180 ha         1 RPA       0.168000
    105 H24         20.0650     8.7050    22.7830 ha         1 RPA       0.174000
    106 H25         21.2940     6.8020    20.6490 ha         1 RPA       0.170000
    107 HM81        18.5510     9.9500    19.5750 hc         1 RPA       0.041700
    108 HM82        18.2710     9.1700    21.1300 hc         1 RPA       0.041700
    109 HM83        19.6340    10.2830    20.9250 hc         1 RPA       0.041700
    110 H27         19.3490     8.6390    17.9610 ha         1 RPA       0.170000
    111 H28         21.3330     6.3800    18.5530 ha         1 RPA       0.172000
    112 H29         20.0420     7.5000    15.9440 ha         1 RPA       0.168000
    113 HM91        20.8040     4.7200    14.0540 hc         1 RPA       0.041200
    114 HM92        20.6360     6.4710    13.8860 hc         1 RPA       0.041200
    115 HM93        22.2450     5.7400    13.8980 hc         1 RPA       0.041200
    116 HM01        23.2140     5.1700    16.6650 hc         1 RPA       0.041200
    117 HM02        21.8090     4.4460    17.4710 hc         1 RPA       0.041200
    118 HM03        22.2960     3.8760    15.8800 hc         1 RPA       0.041200
    119 HM61        21.2830     7.5060    30.9700 ho         1 RPA       0.438000
@<TRIPOS>BOND
     1     1     2 1   
     2     1     7 1   
     3     1    11 1   
     4     1    54 1   
     5     2     3 1   
     6     2     8 1   
     7     2    55 1   
     8     3     4 1   
     9     3     9 1   
    10     3    56 1   
    11     4     5 1   
    12     4    10 1   
    13     4    57 1   
    14     5     6 1   
    15     5    11 1   
    16     5    58 1   
    17     6    12 1   
    18     6    59 1   
    19     6    60 1   
    20     7    13 1   
    21     8    61 1   
    22     9    62 1   
    23    10    63 1   
    24    12    64 1   
    25    13    14 1   
    26    13    15 1   
    27    13    16 1   
    28    14    65 1   
    29    14    66 1   
    30    14    67 1   
    31    15    68 1   
    32    15    69 1   
    33    15    70 1   
    34    16    17 1   
    35    16    71 1   
    36    16    72 1   
    37    17    18 1   
    38    17    73 1   
    39    17    74 1   
    40    18    19 1   
    41    18    75 1   
    42    18    76 1   
    43    19    20 1   
    44    19    21 2   
    45    20    77 1   
    46    20    78 1   
    47    20    79 1   
    48    21    22 1   
    49    21    80 1   
    50    22    23 2   
    51    22    81 1   
    52    23    24 1   
    53    23    82 1   
    54    24    25 1   
    55    24    26 2   
    56    25    83 1   
    57    25    84 1   
    58    25    85 1   
    59    26    27 1   
    60    26    86 1   
    61    27    28 2   
    62    27    87 1   
    63    28    29 1   
    64    28    88 1   
    65    29    30 1   
    66    29    31 2   
    67    30    89 1   
    68    30    90 1   
    69    30    91 1   
    70    31    32 1   
    71    31    92 1   
    72    32    33 2   
    73    32    93 1   
    74    33    34 1   
    75    33    94 1   
    76    34    35 2   
    77    34    95 1   
    78    35    36 1   
    79    35    37 1   
    80    36    53 1   
    81    36    96 1   
    82    36    97 1   
    83    37    38 2   
    84    37    98 1   
    85    38    39 1   
    86    38    99 1   
    87    39    40 2   
    88    39   100 1   
    89    40    41 1   
    90    40    42 1   
    91    41   101 1   
    92    41   102 1   
    93    41   103 1   
    94    42    43 2   
    95    42   104 1   
    96    43    44 1   
    97    43   105 1   
    98    44    45 2   
    99    44   106 1   
   100    45    46 1   
   101    45    47 1   
   102    46   107 1   
   103    46   108 1   
   104    46   109 1   
   105    47    48 2   
   106    47   110 1   
   107    48    49 1   
   108    48   111 1   
   109    49    50 2   
   110    49   112 1   
   111    50    51 1   
   112    50    52 1   
   113    51   113 1   
   114    51   114 1   
   115    51   115 1   
   116    52   116 1   
   117    52   117 1   
   118    52   118 1   
   119    53   119 1   
@<TRIPOS>SUBSTRUCTURE
     1 RPA         1 TEMP              0 ****  ****    0 ROOT
