@<TRIPOS>MOLECULE
RPA
  119   119     1     0     0
SMALL
bcc


@<TRIPOS>ATOM
      1 C1          27.0420    -1.6990    48.6480 c6         1 RPA       0.359900
      2 C2          27.3050    -2.6270    49.8300 c6         1 RPA       0.123100
      3 C3          25.9850    -2.9140    50.5350 c6         1 RPA       0.107100
      4 C4          25.2740    -1.6210    50.9160 c6         1 RPA       0.080100
      5 C5          25.1410    -0.7330    49.6730 c6         1 RPA       0.130100
      6 C6          24.5570     0.6240    50.0010 c3         1 RPA       0.147400
      7 O1          28.2380    -1.3390    48.0770 os         1 RPA      -0.394600
      8 O2          27.8970    -3.8010    49.3400 oh         1 RPA      -0.585800
      9 O3          26.2700    -3.7130    51.6570 oh         1 RPA      -0.601800
     10 O4          24.0180    -1.9760    51.4500 oh         1 RPA      -0.600800
     11 O5          26.4200    -0.5250    49.1120 os         1 RPA      -0.420600
     12 O6          24.3790     1.3490    48.8080 oh         1 RPA      -0.581800
     13 C31         28.3180    -1.1570    46.6490 c3         1 RPA       0.175800
     14 CM1         29.6370    -0.4190    46.4540 c3         1 RPA      -0.100100
     15 CM2         27.1760    -0.2980    46.1140 c3         1 RPA      -0.100100
     16 C32         28.3670    -2.5490    45.9990 c3         1 RPA      -0.099400
     17 C33         28.4710    -2.5880    44.4680 c3         1 RPA      -0.068400
     18 C34         27.1250    -2.7320    43.7460 c3         1 RPA      -0.047200
     19 C35         27.2880    -2.8540    42.2570 c2         1 RPA      -0.092400
     20 CM3         27.7920    -4.1790    41.7720 c3         1 RPA      -0.057900
     21 C36         27.0050    -1.8080    41.4590 ce         1 RPA      -0.144000
     22 C7          27.1580    -1.7460    40.0240 ce         1 RPA      -0.113000
     23 C8          26.8320    -0.6610    39.2920 cf         1 RPA      -0.133000
     24 C9          26.9720    -0.5430    37.8550 cf         1 RPA      -0.057200
     25 CM4         27.5640    -1.7020    37.1090 c3         1 RPA      -0.056900
     26 C10         26.5510     0.6010    37.2560 ce         1 RPA      -0.132000
     27 C11         26.5860     0.9000    35.8540 ce         1 RPA      -0.116000
     28 C12         26.0530     2.0250    35.3240 cf         1 RPA      -0.129000
     29 C13         26.0150     2.3450    33.9160 cf         1 RPA      -0.056200
     30 CM5         26.6990     1.4130    32.9610 c3         1 RPA      -0.057900
     31 C14         25.3340     3.4570    33.5260 ce         1 RPA      -0.132000
     32 C15         25.1080     3.8900    32.1820 ce         1 RPA      -0.113000
     33 C16         24.3410     4.9600    31.8520 cf         1 RPA      -0.128000
     34 C17         24.0740     5.2920    30.4860 cf         1 RPA      -0.105000
     35 C18         23.2600     6.2650    29.9970 ce         1 RPA      -0.069200
     36 CM6         22.5100     7.2200    30.8810 c3         1 RPA       0.176600
     37 C19         23.0700     6.3260    28.5690 ce         1 RPA      -0.119000
     38 C20         22.2480     7.1520    27.8800 cf         1 RPA      -0.111000
     39 C21         22.1290     7.0540    26.4540 cf         1 RPA      -0.128000
     40 C22         21.3230     7.7680    25.6240 ce         1 RPA      -0.062200
     41 CM7         20.4010     8.8560    26.0840 c3         1 RPA      -0.053900
     42 C23         21.3460     7.4280    24.2210 ce         1 RPA      -0.127000
     43 C24         20.5970     7.9850    23.2420 cf         1 RPA      -0.119000
     44 C25         20.6610     7.5170    21.8840 cf         1 RPA      -0.134000
     45 C26         19.9480     7.9670    20.8240 ce         1 RPA      -0.060200
     46 CM8         19.0050     9.1330    20.8860 c3         1 RPA      -0.054900
     47 C27         20.0480     7.3290    19.5160 ce         1 RPA      -0.133000
     48 C28         20.3880     6.0470    19.2800 cf         1 RPA      -0.113000
     49 C29         20.4730     5.4810    17.9530 cf         1 RPA      -0.145000
     50 C30         20.7830     4.2110    17.6350 c2         1 RPA      -0.093400
     51 CM9         20.8320     3.7740    16.2030 c3         1 RPA      -0.058900
     52 CM0         21.1030     3.1330    18.6250 c3         1 RPA      -0.058900
     53 O11         21.1570     6.8130    30.9380 oh         1 RPA      -0.589800
     54 H1          26.3710    -2.2150    47.9380 h2         1 RPA       0.034700
     55 H2          27.9740    -2.1030    50.5320 h1         1 RPA       0.065700
     56 H3          25.3370    -3.4570    49.8270 h1         1 RPA       0.051700
     57 H4          25.8860    -1.0900    51.6600 h1         1 RPA       0.057700
     58 H5          24.4830    -1.2410    48.9480 h1         1 RPA       0.058700
     59 H6'1        23.6050     0.4760    50.5250 h1         1 RPA       0.024700
     60 H6'2        25.2320     1.1400    50.6980 h1         1 RPA       0.024700
     61 HO2         27.9870    -4.4200    50.0730 ho         1 RPA       0.422000
     62 HO3         25.4370    -4.0200    52.0290 ho         1 RPA       0.423000
     63 HO4         23.7600    -1.3270    52.1110 ho         1 RPA       0.412000
     64 HO6         24.0040     2.2050    49.0340 ho         1 RPA       0.405000
     65 HM11        29.8300    -0.2340    45.3980 hc         1 RPA       0.045700
     66 HM12        29.6150     0.5480    46.9580 hc         1 RPA       0.045700
     67 HM13        30.4740    -0.9950    46.8520 hc         1 RPA       0.045700
     68 HM21        27.3490    -0.0760    45.0610 hc         1 RPA       0.045700
     69 HM22        26.2040    -0.7890    46.1840 hc         1 RPA       0.045700
     70 HM23        27.1200     0.6530    46.6450 hc         1 RPA       0.045700
     71 H21A        29.2240    -3.0720    46.4310 hc         1 RPA       0.053200
     72 H22         27.4830    -3.1200    46.3020 hc         1 RPA       0.053200
     73 H31         28.9860    -1.7030    44.0860 hc         1 RPA       0.041700
     74 H32         29.1040    -3.4340    44.1930 hc         1 RPA       0.041700
     75 H41         26.6180    -3.6230    44.1330 hc         1 RPA       0.046200
     76 H42         26.4810    -1.8810    43.9770 hc         1 RPA       0.046200
     77 HM31        27.8910    -4.2460    40.6910 hc         1 RPA       0.041367
     78 HM32        28.7680    -4.4120    42.2060 hc         1 RPA       0.041367
     79 HM33        27.1170    -4.9760    42.0930 hc         1 RPA       0.041367
     80 H6          26.6280    -0.9040    41.9310 ha         1 RPA       0.119000
     81 H7          27.5590    -2.6180    39.5200 ha         1 RPA       0.121000
     82 H8          26.4250     0.2060    39.8070 ha         1 RPA       0.121000
     83 HM41        27.6550    -1.5230    36.0410 hc         1 RPA       0.042367
     84 HM42        28.5610    -1.9400    37.4870 hc         1 RPA       0.042367
     85 HM43        26.9560    -2.5990    37.2390 hc         1 RPA       0.042367
     86 H10         26.1230     1.3700    37.8940 ha         1 RPA       0.120000
     87 H11         27.0460     0.1780    35.1900 ha         1 RPA       0.123000
     88 H12         25.5800     2.7400    35.9940 ha         1 RPA       0.121000
     89 HM51        26.6740     1.7600    31.9320 hc         1 RPA       0.043367
     90 HM52        27.7470     1.2810    33.2350 hc         1 RPA       0.043367
     91 HM53        26.2390     0.4220    32.9850 hc         1 RPA       0.043367
     92 H14         24.8780     4.0630    34.3050 ha         1 RPA       0.121000
     93 H15         25.5400     3.3140    31.3710 ha         1 RPA       0.121000
     94 H16         23.8910     5.5460    32.6460 ha         1 RPA       0.126000
     95 H17         24.5660     4.6530    29.7560 ha         1 RPA       0.119000
     96 HM62        22.9600     7.2510    31.8790 h1         1 RPA       0.023700
     97 HM63        22.6060     8.2330    30.4710 h1         1 RPA       0.023700
     98 H19         23.6420     5.6020    27.9930 ha         1 RPA       0.117000
     99 H20         21.6440     7.8830    28.4060 ha         1 RPA       0.127000
    100 H21         22.7520     6.2920    25.9920 ha         1 RPA       0.117000
    101 HM71        20.6270     9.7970    25.5780 hc         1 RPA       0.041700
    102 HM72        19.3630     8.6140    25.8480 hc         1 RPA       0.041700
    103 HM73        20.4620     9.0380    27.1540 hc         1 RPA       0.041700
    104 H23         22.0230     6.6240    23.9410 ha         1 RPA       0.118000
    105 H24         19.9080     8.7870    23.4850 ha         1 RPA       0.124000
    106 H25         21.3600     6.7030    21.7130 ha         1 RPA       0.120000
    107 HM81        19.2270     9.8410    20.0840 hc         1 RPA       0.041700
    108 HM82        17.9740     8.8060    20.7340 hc         1 RPA       0.041700
    109 HM83        19.0460     9.6790    21.8250 hc         1 RPA       0.041700
    110 H27         19.7800     7.9510    18.6650 ha         1 RPA       0.120000
    111 H28         20.5940     5.3970    20.1250 ha         1 RPA       0.122000
    112 H29         20.2590     6.1670    17.1360 ha         1 RPA       0.118000
    113 HM91        20.1290     2.9560    16.0220 hc         1 RPA       0.041200
    114 HM92        20.5950     4.5850    15.5150 hc         1 RPA       0.041200
    115 HM93        21.8230     3.3890    15.9480 hc         1 RPA       0.041200
    116 HM01        22.1000     2.7280    18.4350 hc         1 RPA       0.041200
    117 HM02        21.0660     3.4570    19.6620 hc         1 RPA       0.041200
    118 HM03        20.4070     2.2980    18.5110 hc         1 RPA       0.041200
    119 HM61        20.6590     7.5050    31.3840 ho         1 RPA       0.399000
@<TRIPOS>BOND
     1     1     2 1   
     2     1     7 1   
     3     1    11 1   
     4     1    54 1   
     5     2     3 1   
     6     2     8 1   
     7     2    55 1   
     8     3     4 1   
     9     3     9 1   
    10     3    56 1   
    11     4     5 1   
    12     4    10 1   
    13     4    57 1   
    14     5     6 1   
    15     5    11 1   
    16     5    58 1   
    17     6    12 1   
    18     6    59 1   
    19     6    60 1   
    20     7    13 1   
    21     8    61 1   
    22     9    62 1   
    23    10    63 1   
    24    12    64 1   
    25    13    14 1   
    26    13    15 1   
    27    13    16 1   
    28    14    65 1   
    29    14    66 1   
    30    14    67 1   
    31    15    68 1   
    32    15    69 1   
    33    15    70 1   
    34    16    17 1   
    35    16    71 1   
    36    16    72 1   
    37    17    18 1   
    38    17    73 1   
    39    17    74 1   
    40    18    19 1   
    41    18    75 1   
    42    18    76 1   
    43    19    20 1   
    44    19    21 2   
    45    20    77 1   
    46    20    78 1   
    47    20    79 1   
    48    21    22 1   
    49    21    80 1   
    50    22    23 2   
    51    22    81 1   
    52    23    24 1   
    53    23    82 1   
    54    24    25 1   
    55    24    26 2   
    56    25    83 1   
    57    25    84 1   
    58    25    85 1   
    59    26    27 1   
    60    26    86 1   
    61    27    28 2   
    62    27    87 1   
    63    28    29 1   
    64    28    88 1   
    65    29    30 1   
    66    29    31 2   
    67    30    89 1   
    68    30    90 1   
    69    30    91 1   
    70    31    32 1   
    71    31    92 1   
    72    32    33 2   
    73    32    93 1   
    74    33    34 1   
    75    33    94 1   
    76    34    35 2   
    77    34    95 1   
    78    35    36 1   
    79    35    37 1   
    80    36    53 1   
    81    36    96 1   
    82    36    97 1   
    83    37    38 2   
    84    37    98 1   
    85    38    39 1   
    86    38    99 1   
    87    39    40 2   
    88    39   100 1   
    89    40    41 1   
    90    40    42 1   
    91    41   101 1   
    92    41   102 1   
    93    41   103 1   
    94    42    43 2   
    95    42   104 1   
    96    43    44 1   
    97    43   105 1   
    98    44    45 2   
    99    44   106 1   
   100    45    46 1   
   101    45    47 1   
   102    46   107 1   
   103    46   108 1   
   104    46   109 1   
   105    47    48 2   
   106    47   110 1   
   107    48    49 1   
   108    48   111 1   
   109    49    50 2   
   110    49   112 1   
   111    50    51 1   
   112    50    52 1   
   113    51   113 1   
   114    51   114 1   
   115    51   115 1   
   116    52   116 1   
   117    52   117 1   
   118    52   118 1   
   119    53   119 1   
@<TRIPOS>SUBSTRUCTURE
     1 RPA         1 TEMP              0 ****  ****    0 ROOT
