@<TRIPOS>MOLECULE
RPB
   42    45     1     0     0
SMALL
bcc


@<TRIPOS>ATOM
      1 O1          -4.9470     2.1230     0.3510 o          1 RPB      -0.647500
      2 C7          -3.8010     1.8510     0.0060 c          1 RPB       0.722100
      3 N1          -2.9300     2.8270    -0.3060 ns         1 RPB      -0.571900
      4 C8          -1.6040     2.7490    -0.8870 c3         1 RPB       0.119000
      5 C9          -0.5730     2.1070     0.0320 c3         1 RPB      -0.023200
      6 C10         -0.7590     0.6290     0.0660 cc         1 RPB      -0.121400
      7 C5          -2.0300    -0.0230     0.0160 ca         1 RPB      -0.082800
      8 C4          -3.3630     0.4220    -0.0500 ca         1 RPB      -0.073600
      9 C3          -4.3730    -0.5300    -0.0910 ca         1 RPB      -0.139000
     10 C2          -4.0660    -1.8850    -0.0740 ca         1 RPB       0.140900
     11 F1          -5.0830    -2.7650    -0.1370 f          1 RPB      -0.142900
     12 C1          -2.7830    -2.3720     0.0160 ca         1 RPB      -0.175000
     13 C6          -1.7780    -1.4150     0.0710 ca         1 RPB      -0.031200
     14 N2          -0.4340    -1.5830     0.1730 na         1 RPB      -0.163400
     15 C11          0.1900    -0.3600     0.1460 cd         1 RPB       0.006700
     16 C12          1.6490    -0.2770     0.2350 ca         1 RPB      -0.046800
     17 C14          2.3410    -1.0200     1.1910 ca         1 RPB      -0.117000
     18 C15          3.7240    -0.9460     1.2790 ca         1 RPB      -0.115000
     19 C13          2.3840     0.5270    -0.6400 ca         1 RPB      -0.117000
     20 C17          3.7630     0.5990    -0.5460 ca         1 RPB      -0.115000
     21 C16          4.4540    -0.1300     0.4210 ca         1 RPB      -0.078300
     22 C18          5.9500    -0.0260     0.5360 c3         1 RPB       0.200100
     23 N3           6.5990    -0.2130    -0.7460 n7         1 RPB      -0.804200
     24 C19          8.0370    -0.0620    -0.6640 c3         1 RPB       0.143100
     25 H1          -3.3070     3.7560    -0.1960 hn         1 RPB       0.313500
     26 H81C        -1.6320     2.2200    -1.8430 h1         1 RPB       0.047200
     27 H82C        -1.3140     3.7750    -1.1030 h1         1 RPB       0.047200
     28 H91C         0.4250     2.3660    -0.3200 hc         1 RPB       0.058700
     29 H92C        -0.6690     2.5450     1.0300 hc         1 RPB       0.058700
     30 H3          -5.4100    -0.2260    -0.1310 ha         1 RPB       0.172000
     31 HA          -2.5770    -3.4340     0.0450 ha         1 RPB       0.152000
     32 H2           0.0420    -2.4700     0.1420 hn         1 RPB       0.305700
     33 H14          1.7970    -1.6510     1.8840 ha         1 RPB       0.135000
     34 H13          1.8750     1.0830    -1.4170 ha         1 RPB       0.135000
     35 H15          4.2390    -1.5280     2.0330 ha         1 RPB       0.141000
     36 H17          4.3130     1.2200    -1.2420 ha         1 RPB       0.141000
     37 H181         6.2100     0.9750     0.8980 h1         1 RPB       0.039200
     38 H182         6.3060    -0.7260     1.3080 h1         1 RPB       0.039200
     39 HB           6.3810    -1.1400    -1.0910 hn         1 RPB       0.355800
     40 H191         8.4850    -0.2660    -1.6370 h1         1 RPB       0.031367
     41 H192         8.2860     0.9660    -0.3940 h1         1 RPB       0.031367
     42 H193         8.5180    -0.7200     0.0730 h1         1 RPB       0.031367
@<TRIPOS>BOND
     1     1     2 2   
     2     2     3 1   
     3     2     8 1   
     4     3     4 1   
     5     3    25 1   
     6     4     5 1   
     7     4    26 1   
     8     4    27 1   
     9     5     6 1   
    10     5    28 1   
    11     5    29 1   
    12     6     7 1   
    13     6    15 2   
    14     7     8 ar  
    15     7    13 ar  
    16     8     9 ar  
    17     9    10 ar  
    18     9    30 1   
    19    10    11 1   
    20    10    12 ar  
    21    12    13 ar  
    22    12    31 1   
    23    13    14 1   
    24    14    15 1   
    25    14    32 1   
    26    15    16 1   
    27    16    17 ar  
    28    16    19 ar  
    29    17    18 ar  
    30    17    33 1   
    31    18    21 ar  
    32    18    35 1   
    33    19    20 ar  
    34    19    34 1   
    35    20    21 ar  
    36    20    36 1   
    37    21    22 1   
    38    22    23 1   
    39    22    37 1   
    40    22    38 1   
    41    23    24 1   
    42    23    39 1   
    43    24    40 1   
    44    24    41 1   
    45    24    42 1   
@<TRIPOS>SUBSTRUCTURE
     1 RPB         1 TEMP              0 ****  ****    0 ROOT
