@<TRIPOS>MOLECULE
RPB
   42    45     1     0     0
SMALL
No Charge or Current Charge


@<TRIPOS>ATOM
      1 O1          -4.9890     2.1610    -0.2610 o          1 RPB      -0.572000
      2 C7          -3.8130     1.8430    -0.3560 c          1 RPB       0.579600
      3 N1          -2.9180     2.8570    -0.6390 ns         1 RPB      -0.504900
      4 C8          -1.4740     2.7750    -0.8440 c3         1 RPB       0.119000
      5 C9          -0.7550     2.1200     0.3330 c3         1 RPB      -0.023200
      6 C10         -0.8290     0.6280     0.2280 cc         1 RPB      -0.121400
      7 C5          -2.0700    -0.0800     0.0730 ca         1 RPB      -0.082800
      8 C4          -3.3880     0.3870    -0.1660 ca         1 RPB      -0.073600
      9 C3          -4.4000    -0.6110    -0.2190 ca         1 RPB      -0.121000
     10 C2          -4.0940    -1.9790    -0.0710 ca         1 RPB       0.176000
     11 F1          -5.0820    -2.8970    -0.1380 f          1 RPB      -0.178000
     12 C1          -2.7720    -2.3970     0.1370 ca         1 RPB      -0.157000
     13 C6          -1.7820    -1.4120     0.2060 ca         1 RPB      -0.031200
     14 N2          -0.4330    -1.6160     0.3930 na         1 RPB      -0.213700
     15 C11          0.1750    -0.3420     0.3780 cd         1 RPB       0.006700
     16 C12          1.6490    -0.1820     0.3890 ca         1 RPB      -0.046800
     17 C14          2.4490    -1.1690     1.0070 ca         1 RPB      -0.099000
     18 C15          3.8500    -1.0560     1.0290 ca         1 RPB      -0.097000
     19 C13          2.2980     0.8950    -0.2530 ca         1 RPB      -0.099000
     20 C17          3.7000     1.0070    -0.2350 ca         1 RPB      -0.097000
     21 C16          4.4850     0.0380     0.4130 ca         1 RPB      -0.078300
     22 C18          6.0030     0.1640     0.4360 c3         1 RPB       0.200100
     23 N3           6.5890    -0.3810    -0.8030 n7         1 RPB      -0.859400
     24 C19          8.0630    -0.3420    -0.8690 c3         1 RPB       0.143100
     25 H1          -3.3440     3.7720    -0.7330 hn         1 RPB       0.313500
     26 H81C        -1.2640     2.2280    -1.7730 h1         1 RPB       0.047200
     27 H82C        -1.0970     3.7990    -0.9630 h1         1 RPB       0.047200
     28 H91C         0.2710     2.4870     0.3910 hc         1 RPB       0.058700
     29 H92C        -1.2220     2.4480     1.2700 hc         1 RPB       0.058700
     30 H3          -5.4360    -0.3320    -0.3900 ha         1 RPB       0.154000
     31 HA          -2.5310    -3.4510     0.2440 ha         1 RPB       0.134000
     32 H2           0.0420    -2.5090     0.4500 hn         1 RPB       0.356000
     33 H14          1.9880    -2.0200     1.5020 ha         1 RPB       0.117000
     34 H13          1.7350     1.6230    -0.8270 ha         1 RPB       0.117000
     35 H15          4.4420    -1.8210     1.5260 ha         1 RPB       0.123000
     36 H17          4.1790     1.8400    -0.7440 ha         1 RPB       0.123000
     37 H181         6.2720     1.2230     0.5540 h1         1 RPB       0.039200
     38 H182         6.3940    -0.3700     1.3130 h1         1 RPB       0.039200
     39 HB           6.2880    -1.3610    -0.8850 hn         1 RPB       0.411000
     40 H191         8.4180    -0.7590    -1.8210 h1         1 RPB       0.031367
     41 H192         8.4310     0.6900    -0.7920 h1         1 RPB       0.031367
     42 H193         8.5080    -0.9280    -0.0540 h1         1 RPB       0.031367
@<TRIPOS>BOND
     1     1     2 2   
     2     2     3 1   
     3     2     8 1   
     4     3     4 1   
     5     3    25 1   
     6     4     5 1   
     7     4    26 1   
     8     4    27 1   
     9     5     6 1   
    10     5    28 1   
    11     5    29 1   
    12     6     7 1   
    13     6    15 2   
    14     7     8 ar  
    15     7    13 ar  
    16     8     9 ar  
    17     9    10 ar  
    18     9    30 1   
    19    10    11 1   
    20    10    12 ar  
    21    12    13 ar  
    22    12    31 1   
    23    13    14 1   
    24    14    15 1   
    25    14    32 1   
    26    15    16 1   
    27    16    17 ar  
    28    16    19 ar  
    29    17    18 ar  
    30    17    33 1   
    31    18    21 ar  
    32    18    35 1   
    33    19    20 ar  
    34    19    34 1   
    35    20    21 ar  
    36    20    36 1   
    37    21    22 1   
    38    22    23 1   
    39    22    37 1   
    40    22    38 1   
    41    23    24 1   
    42    23    39 1   
    43    24    40 1   
    44    24    41 1   
    45    24    42 1   
@<TRIPOS>SUBSTRUCTURE
     1 RPB         1 TEMP              0 ****  ****    0 ROOT
