@<TRIPOS>MOLECULE
RPF
   76    80     1     0     0
SMALL
No Charge or Current Charge


@<TRIPOS>ATOM
      1 C1          10.5570    -1.7670     0.0840 c3         1 RPF       0.149900
      2 O1           9.4720    -0.9030    -0.3010 os         1 RPF      -0.351100
      3 C2           9.4330     0.4380     0.0350 ca         1 RPF       0.138100
      4 C3           8.3240     1.2120    -0.3780 ca         1 RPF      -0.115300
      5 C4           7.1800     0.6030    -1.1830 c3         1 RPF       0.218900
      6 O2           6.0540     0.4160    -0.3090 os         1 RPF      -0.461000
      7 C5          10.4710     1.0470     0.7780 ca         1 RPF      -0.198000
      8 C6          10.4040     2.4120     1.1040 ca         1 RPF      -0.072000
      9 C7           9.3020     3.1770     0.6950 ca         1 RPF      -0.150000
     10 C8           8.2670     2.5800    -0.0430 ca         1 RPF      -0.053000
     11 C9          -4.9820     0.9950    -0.6750 ca         1 RPF       0.179100
     12 C10         -5.4270     1.7520     0.4160 ca         1 RPF      -0.229000
     13 C11         -5.4770     3.1470     0.3330 ca         1 RPF       0.354000
     14 C12         -5.0850     3.8050    -0.8530 ca         1 RPF      -0.180300
     15 C13         -4.6350     3.0470    -1.9480 ca         1 RPF      -0.033000
     16 C14         -4.5850     1.6460    -1.8620 ca         1 RPF      -0.243000
     17 C20         -4.5450    -2.7300    -1.1000 c6         1 RPF       0.136700
     18 C21         -6.0290    -3.1730    -0.9300 c6         1 RPF       0.139800
     19 N2          -6.1360    -4.5620    -0.4320 n7         1 RPF      -0.854400
     20 C22         -5.4670    -4.6870     0.9000 c6         1 RPF       0.070800
     21 C23         -4.0070    -4.1340     0.9370 c          1 RPF       0.577000
     22 N3          -3.6860    -3.0210     0.1040 n          1 RPF      -0.228400
     23 C24         -4.4890    -1.2460    -1.5860 c3         1 RPF       0.147600
     24 O6          -4.9520    -0.3760    -0.5350 os         1 RPF      -0.346100
     25 C25         -1.8940    -1.9660     1.4420 ca         1 RPF      -0.061000
     26 C26         -2.3980    -2.3680     0.1870 ca         1 RPF      -0.091000
     27 C27         -1.5040    -2.4190    -0.9060 ca         1 RPF      -0.061000
     28 C28         -0.1900    -1.9320    -0.7860 ca         1 RPF      -0.171500
     29 C29          0.2720    -1.4430     0.4540 ca         1 RPF       0.148100
     30 C30         -0.5810    -1.4780     1.5650 ca         1 RPF      -0.171500
     31 O7           1.5500    -0.9560     0.6340 os         1 RPF      -0.346100
     32 C31          2.4990    -0.8820    -0.4420 c3         1 RPF       0.166600
     33 C32          3.7980    -0.2810     0.1230 c3         1 RPF      -0.087400
     34 C33          4.8980    -0.1510    -0.9440 c3         1 RPF       0.167600
     35 C34         -6.0150     5.9730     0.1490 c6         1 RPF      -0.085400
     36 C35         -5.7280     5.3410     1.5290 c6         1 RPF       0.215800
     37 N1          -5.9270     3.8870     1.4250 nu         1 RPF      -0.955200
     38 C36         -5.1220     5.3380    -0.9460 c6         1 RPF      -0.015100
     39 H1C1        11.5060    -1.4120    -0.3380 h1         1 RPF       0.040367
     40 H1C2        10.6500    -1.8130     1.1760 h1         1 RPF       0.040367
     41 H1C3        10.3810    -2.7850    -0.2860 h1         1 RPF       0.040367
     42 H4C1         6.9190     1.2830    -2.0040 h1         1 RPF       0.036200
     43 H4C2         7.4850    -0.3510    -1.6320 h1         1 RPF       0.036200
     44 H5          11.3360     0.4810     1.1090 ha         1 RPF       0.116000
     45 H6          11.2050     2.8750     1.6760 ha         1 RPF       0.111000
     46 H7           9.2490     4.2330     0.9490 ha         1 RPF       0.115000
     47 H8           7.4140     3.1810    -0.3540 ha         1 RPF       0.132000
     48 H10         -5.7320     1.2480     1.3270 ha         1 RPF       0.123000
     49 H13         -4.3230     3.5430    -2.8650 ha         1 RPF       0.106000
     50 H14         -4.2340     1.0860    -2.7240 ha         1 RPF       0.116000
     51 H20         -4.1390    -3.3340    -1.9220 h1         1 RPF       0.062700
     52 H211        -6.5380    -2.4950    -0.2280 h1         1 RPF       0.051200
     53 H212        -6.5470    -3.0910    -1.8980 h1         1 RPF       0.051200
     54 H2          -7.1310    -4.8210    -0.3430 hn         1 RPF       0.422000
     55 H221        -6.0320    -4.1200     1.6550 h1         1 RPF       0.064200
     56 H222        -5.4360    -5.7410     1.2140 h1         1 RPF       0.064200
     57 H241        -3.4640    -0.9890    -1.8750 h1         1 RPF       0.045700
     58 H242        -5.1220    -1.1440    -2.4770 h1         1 RPF       0.045700
     59 H25         -2.5320    -2.0050     2.3220 ha         1 RPF       0.124000
     60 H27         -1.8250    -2.8330    -1.8590 ha         1 RPF       0.124000
     61 H28          0.4560    -1.9590    -1.6580 ha         1 RPF       0.123000
     62 H30         -0.2200    -1.1360     2.5320 ha         1 RPF       0.123000
     63 H311         2.1200    -0.2430    -1.2500 h1         1 RPF       0.033700
     64 H312         2.7040    -1.8810    -0.8480 h1         1 RPF       0.033700
     65 H321         4.1620    -0.9140     0.9400 hc         1 RPF       0.068700
     66 H322         3.5840     0.7090     0.5420 hc         1 RPF       0.068700
     67 H331         4.5470     0.4960    -1.7590 h1         1 RPF       0.021700
     68 H332         5.1300    -1.1410    -1.3580 h1         1 RPF       0.021700
     69 H341        -5.8510     7.0580     0.1900 hc         1 RPF       0.051200
     70 H342        -7.0740     5.8250    -0.1060 hc         1 RPF       0.051200
     71 H351        -4.6880     5.5620     1.8140 h1         1 RPF       0.035700
     72 H352        -6.3870     5.7760     2.2950 h1         1 RPF       0.035700
     73 H1          -6.1400     3.3580     2.2730 hn         1 RPF       0.472000
     74 H361        -4.0980     5.7240    -0.8480 hc         1 RPF       0.045200
     75 H362        -5.4780     5.6510    -1.9370 hc         1 RPF       0.045200
     76 O5          -3.1830    -4.6370     1.6960 o          1 RPF      -0.552000
@<TRIPOS>BOND
     1     1     2 1   
     2     1    39 1   
     3     1    40 1   
     4     1    41 1   
     5     2     3 1   
     6     3     4 ar  
     7     3     7 ar  
     8     4     5 1   
     9     4    10 ar  
    10     5     6 1   
    11     5    42 1   
    12     5    43 1   
    13     6    34 1   
    14     7     8 ar  
    15     7    44 1   
    16     8     9 ar  
    17     8    45 1   
    18     9    10 ar  
    19     9    46 1   
    20    10    47 1   
    21    11    12 ar  
    22    11    16 ar  
    23    11    24 1   
    24    12    13 ar  
    25    12    48 1   
    26    13    14 ar  
    27    13    37 1   
    28    14    15 ar  
    29    14    38 1   
    30    15    16 ar  
    31    15    49 1   
    32    16    50 1   
    33    17    18 1   
    34    17    22 1   
    35    17    23 1   
    36    17    51 1   
    37    18    19 1   
    38    18    52 1   
    39    18    53 1   
    40    19    20 1   
    41    19    54 1   
    42    20    21 1   
    43    20    55 1   
    44    20    56 1   
    45    21    22 1   
    46    21    76 2   
    47    22    26 1   
    48    23    24 1   
    49    23    57 1   
    50    23    58 1   
    51    25    26 ar  
    52    25    30 ar  
    53    25    59 1   
    54    26    27 ar  
    55    27    28 ar  
    56    27    60 1   
    57    28    29 ar  
    58    28    61 1   
    59    29    30 ar  
    60    29    31 1   
    61    30    62 1   
    62    31    32 1   
    63    32    33 1   
    64    32    63 1   
    65    32    64 1   
    66    33    34 1   
    67    33    65 1   
    68    33    66 1   
    69    34    67 1   
    70    34    68 1   
    71    35    36 1   
    72    35    38 1   
    73    35    69 1   
    74    35    70 1   
    75    36    37 1   
    76    36    71 1   
    77    36    72 1   
    78    37    73 1   
    79    38    74 1   
    80    38    75 1   
@<TRIPOS>SUBSTRUCTURE
     1 RPF         1 TEMP              0 ****  ****    0 ROOT
