@<TRIPOS>MOLECULE
RPF
   76    80     1     0     0
SMALL
abcg2


@<TRIPOS>ATOM
      1 C1          11.0300    -0.9680    -1.1650 c3         1 RPF       0.149900
      2 O1           9.6960    -0.6080    -0.8670 os         1 RPF      -0.351100
      3 C2           9.4640     0.5620    -0.2370 ca         1 RPF       0.138100
      4 C3           8.1180     0.8360     0.0540 ca         1 RPF      -0.115300
      5 C4           7.0710    -0.1670    -0.3480 c3         1 RPF       0.218900
      6 O2           5.8120     0.2550     0.0960 os         1 RPF      -0.461000
      7 C5          10.4600     1.4660     0.1170 ca         1 RPF      -0.198000
      8 C6          10.1200     2.6520     0.7610 ca         1 RPF      -0.072000
      9 C7           8.7980     2.9350     1.0510 ca         1 RPF      -0.150000
     10 C8           7.8060     2.0250     0.6950 ca         1 RPF      -0.053000
     11 C9          -4.9360     0.8980    -0.7830 ca         1 RPF       0.179100
     12 C10         -5.3600     1.5930     0.3440 ca         1 RPF      -0.229000
     13 C11         -5.2930     2.9870     0.3980 ca         1 RPF       0.354000
     14 C12         -4.7760     3.7000    -0.7030 ca         1 RPF      -0.180300
     15 C13         -4.3720     2.9780    -1.8130 ca         1 RPF      -0.033000
     16 C14         -4.4370     1.5910    -1.8830 ca         1 RPF      -0.243000
     17 C20         -4.5170    -2.6860    -1.3210 c6         1 RPF       0.136700
     18 C21         -5.9440    -3.2000    -1.2430 c6         1 RPF       0.139800
     19 N2          -5.9200    -4.5270    -0.6710 n7         1 RPF      -0.854400
     20 C22         -5.5630    -4.4400     0.7260 c6         1 RPF       0.070800
     21 C23         -4.2510    -3.7200     0.9390 c          1 RPF       0.577000
     22 N3          -3.8210    -2.8960    -0.0460 n          1 RPF      -0.228400
     23 C24         -4.4660    -1.2270    -1.7380 c3         1 RPF       0.147600
     24 O6          -5.0500    -0.4470    -0.7210 os         1 RPF      -0.346100
     25 C25         -2.3740    -1.1530     0.8790 ca         1 RPF      -0.061000
     26 C26         -2.5390    -2.2960     0.1030 ca         1 RPF      -0.091000
     27 C27         -1.4420    -2.8310    -0.5510 ca         1 RPF      -0.061000
     28 C28         -0.1870    -2.2420    -0.4450 ca         1 RPF      -0.171500
     29 C29         -0.0260    -1.1000     0.3350 ca         1 RPF       0.148100
     30 C30         -1.1320    -0.5600     0.9970 ca         1 RPF      -0.171500
     31 O7           1.1430    -0.4550     0.5080 os         1 RPF      -0.346100
     32 C31          2.3120    -0.9820    -0.0970 c3         1 RPF       0.166600
     33 C32          3.4740    -0.0940     0.2960 c3         1 RPF      -0.087400
     34 C33          4.7760    -0.6170    -0.2820 c3         1 RPF       0.167600
     35 C34         -5.5800     5.8020     0.4040 c6         1 RPF      -0.085400
     36 C35         -5.4280     5.0440     1.7120 c6         1 RPF       0.215800
     37 N1          -5.7600     3.6530     1.5030 nu         1 RPF      -0.955200
     38 C36         -4.6560     5.2020    -0.6490 c6         1 RPF      -0.015100
     39 H1C1        11.5010    -0.2580    -1.8500 h1         1 RPF       0.040367
     40 H1C2        11.6420    -1.0460    -0.2630 h1         1 RPF       0.040367
     41 H1C3        10.9870    -1.9420    -1.6450 h1         1 RPF       0.040367
     42 H4C1         7.0760    -0.2890    -1.4420 h1         1 RPF       0.036200
     43 H4C2         7.3180    -1.1540     0.0690 h1         1 RPF       0.036200
     44 H5          11.5000     1.2650    -0.1000 ha         1 RPF       0.116000
     45 H6          10.9030     3.3490     1.0320 ha         1 RPF       0.111000
     46 H7           8.5290     3.8560     1.5520 ha         1 RPF       0.115000
     47 H8           6.7740     2.2530     0.9230 ha         1 RPF       0.132000
     48 H10         -5.7520     1.0400     1.1910 ha         1 RPF       0.123000
     49 H13         -3.9820     3.5190    -2.6690 ha         1 RPF       0.106000
     50 H14         -4.1060     1.0880    -2.7810 ha         1 RPF       0.116000
     51 H20         -3.9950    -3.2480    -2.1040 h1         1 RPF       0.062700
     52 H211        -6.5700    -2.5030    -0.6670 h1         1 RPF       0.051200
     53 H212        -6.3440    -3.2440    -2.2560 h1         1 RPF       0.051200
     54 H2          -6.8280    -4.9630    -0.7590 hn         1 RPF       0.422000
     55 H221        -6.3130    -3.9120     1.3380 h1         1 RPF       0.064200
     56 H222        -5.4560    -5.4390     1.1500 h1         1 RPF       0.064200
     57 H241        -3.4320    -0.9170    -1.9210 h1         1 RPF       0.045700
     58 H242        -5.0080    -1.1220    -2.6870 h1         1 RPF       0.045700
     59 H25         -3.2230    -0.7170     1.3870 ha         1 RPF       0.124000
     60 H27         -1.5570    -3.7210    -1.1570 ha         1 RPF       0.124000
     61 H28          0.6430    -2.6910    -0.9720 ha         1 RPF       0.123000
     62 H30         -1.0100     0.3280     1.6030 ha         1 RPF       0.123000
     63 H311         2.1980    -1.0070    -1.1870 h1         1 RPF       0.033700
     64 H312         2.4830    -2.0110     0.2410 h1         1 RPF       0.033700
     65 H321         3.5510    -0.0550     1.3850 hc         1 RPF       0.068700
     66 H322         3.2980     0.9230    -0.0630 hc         1 RPF       0.068700
     67 H331         4.7080    -0.6840    -1.3780 h1         1 RPF       0.021700
     68 H332         4.9710    -1.6340     0.0870 h1         1 RPF       0.021700
     69 H341        -5.3440     6.8550     0.5590 hc         1 RPF       0.051200
     70 H342        -6.6210     5.7480     0.0730 hc         1 RPF       0.051200
     71 H351        -4.4030     5.1720     2.0880 h1         1 RPF       0.035700
     72 H352        -6.1000     5.4460     2.4710 h1         1 RPF       0.035700
     73 H1          -5.8750     3.0990     2.3350 hn         1 RPF       0.472000
     74 H361        -3.6240     5.4810    -0.4130 hc         1 RPF       0.045200
     75 H362        -4.8700     5.6300    -1.6310 hc         1 RPF       0.045200
     76 O5          -3.6250    -3.8720     1.9780 o          1 RPF      -0.552000
@<TRIPOS>BOND
     1     1     2 1   
     2     1    39 1   
     3     1    40 1   
     4     1    41 1   
     5     2     3 1   
     6     3     4 ar  
     7     3     7 ar  
     8     4     5 1   
     9     4    10 ar  
    10     5     6 1   
    11     5    42 1   
    12     5    43 1   
    13     6    34 1   
    14     7     8 ar  
    15     7    44 1   
    16     8     9 ar  
    17     8    45 1   
    18     9    10 ar  
    19     9    46 1   
    20    10    47 1   
    21    11    12 ar  
    22    11    16 ar  
    23    11    24 1   
    24    12    13 ar  
    25    12    48 1   
    26    13    14 ar  
    27    13    37 1   
    28    14    15 ar  
    29    14    38 1   
    30    15    16 ar  
    31    15    49 1   
    32    16    50 1   
    33    17    18 1   
    34    17    22 1   
    35    17    23 1   
    36    17    51 1   
    37    18    19 1   
    38    18    52 1   
    39    18    53 1   
    40    19    20 1   
    41    19    54 1   
    42    20    21 1   
    43    20    55 1   
    44    20    56 1   
    45    21    22 1   
    46    21    76 2   
    47    22    26 1   
    48    23    24 1   
    49    23    57 1   
    50    23    58 1   
    51    25    26 ar  
    52    25    30 ar  
    53    25    59 1   
    54    26    27 ar  
    55    27    28 ar  
    56    27    60 1   
    57    28    29 ar  
    58    28    61 1   
    59    29    30 ar  
    60    29    31 1   
    61    30    62 1   
    62    31    32 1   
    63    32    33 1   
    64    32    63 1   
    65    32    64 1   
    66    33    34 1   
    67    33    65 1   
    68    33    66 1   
    69    34    67 1   
    70    34    68 1   
    71    35    36 1   
    72    35    38 1   
    73    35    69 1   
    74    35    70 1   
    75    36    37 1   
    76    36    71 1   
    77    36    72 1   
    78    37    73 1   
    79    38    74 1   
    80    38    75 1   
@<TRIPOS>SUBSTRUCTURE
     1 RPF         1 TEMP              0 ****  ****    0 ROOT
