@<TRIPOS>MOLECULE
RPG
   55    55     1     0     0
SMALL
abcg2


@<TRIPOS>ATOM
      1 O9          -1.6570     4.0010    -0.2370 o          1 RPG      -0.503100
      2 C9          -0.5900     3.5180     0.0780 c          1 RPG       0.566300
      3 C10          0.5670     4.2560     0.6010 ce         1 RPG      -0.308200
      4 C11          1.5340     3.3990     0.9340 c2         1 RPG      -0.162200
      5 C12          1.1710     1.9630     0.6840 c5         1 RPG      -0.015300
      6 C13          2.2000     1.2550    -0.1430 c2         1 RPG      -0.196200
      7 C14          2.8610     0.1710     0.2490 c2         1 RPG      -0.254200
      8 C15          3.9100    -0.5490    -0.5520 c3         1 RPG       0.202500
      9 C16          5.1880    -0.7120     0.2750 c3         1 RPG      -0.107400
     10 C17          6.2750    -1.5160    -0.4260 c3         1 RPG      -0.072400
     11 C18          7.5110    -1.7120     0.4440 c3         1 RPG      -0.076400
     12 C19          8.6110    -2.5060    -0.2480 c3         1 RPG      -0.075400
     13 C20          9.8410    -2.6980     0.6290 c3         1 RPG      -0.088100
     14 O15          4.1540     0.0490    -1.8030 oh         1 RPG      -0.650000
     15 C8          -0.2110     2.0450     0.0020 c5         1 RPG      -0.164700
     16 C7          -1.2430     1.0890     0.6020 c3         1 RPG      -0.054400
     17 C6          -2.4870     0.8650    -0.2490 c3         1 RPG      -0.079400
     18 C5          -3.4830    -0.0760     0.4190 c3         1 RPG      -0.073400
     19 C4          -4.7210    -0.3360    -0.4290 c3         1 RPG      -0.080400
     20 C3          -5.7520    -1.2210     0.2620 c3         1 RPG      -0.053400
     21 C2          -6.9770    -1.4750    -0.6010 c3         1 RPG      -0.204400
     22 C1          -8.0810    -2.3500     0.0190 c          1 RPG       0.717000
     23 O1          -9.0760    -2.5660    -0.7050 o          1 RPG      -0.744500
     24 O2          -7.9090    -2.7740     1.1780 o          1 RPG      -0.744500
     25 H1           0.5920     5.3310     0.7120 ha         1 RPG       0.206000
     26 H3           2.4920     3.6740     1.3570 ha         1 RPG       0.185000
     27 H5           1.0850     1.4570     1.6530 hc         1 RPG       0.071700
     28 H6           2.3850     1.6810    -1.1260 ha         1 RPG       0.178000
     29 H7           2.6580    -0.2520     1.2300 ha         1 RPG       0.175000
     30 H8           3.5300    -1.5530    -0.7770 h1         1 RPG       0.083700
     31 H9           5.5710     0.2790     0.5460 hc         1 RPG       0.042700
     32 H10          4.9250    -1.2010     1.2180 hc         1 RPG       0.042700
     33 H11          5.8750    -2.4950    -0.7130 hc         1 RPG       0.045200
     34 H12          6.5640    -1.0180    -1.3560 hc         1 RPG       0.045200
     35 H13          7.9040    -0.7330     0.7430 hc         1 RPG       0.035700
     36 H14          7.2280    -2.2190     1.3730 hc         1 RPG       0.035700
     37 H15          8.2180    -3.4830    -0.5470 hc         1 RPG       0.037700
     38 H16          8.8950    -1.9980    -1.1750 hc         1 RPG       0.037700
     39 H17          9.5880    -3.2310     1.5480 hc         1 RPG       0.030367
     40 H18         10.6150    -3.2710     0.1180 hc         1 RPG       0.030367
     41 H19         10.2740    -1.7380     0.9150 hc         1 RPG       0.030367
     42 H20          4.5750     0.9020    -1.6520 ho         1 RPG       0.437000
     43 H21         -0.0910     1.8110    -1.0640 hc         1 RPG       0.082700
     44 H22         -0.7510     0.1240     0.7610 hc         1 RPG       0.040200
     45 H23         -1.5290     1.4470     1.5970 hc         1 RPG       0.040200
     46 H24         -2.9780     1.8170    -0.4610 hc         1 RPG       0.044700
     47 H25         -2.1890     0.4510    -1.2190 hc         1 RPG       0.044700
     48 H26         -2.9920    -1.0280     0.6490 hc         1 RPG       0.032200
     49 H27         -3.7850     0.3490     1.3830 hc         1 RPG       0.032200
     50 H28         -5.1850     0.6220    -0.6940 hc         1 RPG       0.025700
     51 H29         -4.4230    -0.7960    -1.3780 hc         1 RPG       0.025700
     52 H30         -5.2850    -2.1730     0.5350 hc         1 RPG       0.037200
     53 H31         -6.0500    -0.7530     1.2050 hc         1 RPG       0.037200
     54 H32         -7.4250    -0.5160    -0.8910 hc         1 RPG       0.015200
     55 H33         -6.6700    -1.9360    -1.5470 hc         1 RPG       0.015200
@<TRIPOS>BOND
     1     1     2 2   
     2     2     3 1   
     3     2    15 1   
     4     3     4 2   
     5     3    25 1   
     6     4     5 1   
     7     4    26 1   
     8     5     6 1   
     9     5    15 1   
    10     5    27 1   
    11     6     7 2   
    12     6    28 1   
    13     7     8 1   
    14     7    29 1   
    15     8     9 1   
    16     8    14 1   
    17     8    30 1   
    18     9    10 1   
    19     9    31 1   
    20     9    32 1   
    21    10    11 1   
    22    10    33 1   
    23    10    34 1   
    24    11    12 1   
    25    11    35 1   
    26    11    36 1   
    27    12    13 1   
    28    12    37 1   
    29    12    38 1   
    30    13    39 1   
    31    13    40 1   
    32    13    41 1   
    33    14    42 1   
    34    15    16 1   
    35    15    43 1   
    36    16    17 1   
    37    16    44 1   
    38    16    45 1   
    39    17    18 1   
    40    17    46 1   
    41    17    47 1   
    42    18    19 1   
    43    18    48 1   
    44    18    49 1   
    45    19    20 1   
    46    19    50 1   
    47    19    51 1   
    48    20    21 1   
    49    20    52 1   
    50    20    53 1   
    51    21    22 1   
    52    21    54 1   
    53    21    55 1   
    54    22    23 1   
    55    22    24 1   
@<TRIPOS>SUBSTRUCTURE
     1 RPG         1 TEMP              0 ****  ****    0 ROOT
