@<TRIPOS>MOLECULE
RPG
   55    55     1     0     0
SMALL
No Charge or Current Charge


@<TRIPOS>ATOM
      1 O9          -0.4260     3.0080    -1.2930 o          1 RPG      -0.503100
      2 C9          -0.0510     2.4710    -0.2600 c          1 RPG       0.566300
      3 C10          0.5690     3.1380     0.8950 ce         1 RPG      -0.308200
      4 C11          1.2850     2.3290     1.6970 c2         1 RPG      -0.162200
      5 C12          1.2330     0.9200     1.1200 c5         1 RPG      -0.015300
      6 C13          2.4920     0.6010     0.3260 c2         1 RPG      -0.196200
      7 C14          2.8310    -0.6830     0.1080 c2         1 RPG      -0.254200
      8 C15          4.0530    -1.1650    -0.6410 c3         1 RPG       0.202500
      9 C16          5.3640    -0.8290     0.1080 c3         1 RPG      -0.107400
     10 C17          6.6340    -1.4370    -0.5360 c3         1 RPG      -0.072400
     11 C18          7.9220    -1.1200     0.2540 c3         1 RPG      -0.076400
     12 C19          9.1900    -1.7260    -0.3860 c3         1 RPG      -0.075400
     13 C20         10.4750    -1.4090     0.4020 c3         1 RPG      -0.088100
     14 O15          4.0550    -0.5480    -1.9280 oh         1 RPG      -0.650000
     15 C8           0.0250     0.9790     0.1170 c5         1 RPG      -0.164700
     16 C7          -1.3040     0.4960     0.7630 c3         1 RPG      -0.054400
     17 C6          -2.5310     0.5340    -0.1770 c3         1 RPG      -0.079400
     18 C5          -3.8170    -0.0060     0.4870 c3         1 RPG      -0.073400
     19 C4          -5.0440     0.0330    -0.4500 c3         1 RPG      -0.080400
     20 C3          -6.3310    -0.5070     0.2150 c3         1 RPG      -0.053400
     21 C2          -7.5630    -0.4680    -0.7220 c3         1 RPG      -0.204400
     22 C1          -8.8020    -1.0200     0.0060 c          1 RPG       0.717000
     23 O1          -9.0180    -2.2210    -0.0520 o          1 RPG      -0.744500
     24 O2          -9.4890    -0.2400     0.6480 o          1 RPG      -0.744500
     25 H1           0.4980     4.2190     1.0010 ha         1 RPG       0.206000
     26 H3           1.8530     2.6450     2.5760 ha         1 RPG       0.185000
     27 H5           1.0730     0.1760     1.9110 hc         1 RPG       0.071700
     28 H6           3.1230     1.4070    -0.0570 ha         1 RPG       0.178000
     29 H7           2.2090    -1.4930     0.4940 ha         1 RPG       0.175000
     30 H8           3.9880    -2.2590    -0.7470 h1         1 RPG       0.083700
     31 H9           5.4770     0.2600     0.1760 hc         1 RPG       0.042700
     32 H10          5.2810    -1.2010     1.1360 hc         1 RPG       0.042700
     33 H11          6.5140    -2.5250    -0.6100 hc         1 RPG       0.045200
     34 H12          6.7410    -1.0570    -1.5600 hc         1 RPG       0.045200
     35 H13          8.0410    -0.0310     0.3270 hc         1 RPG       0.035700
     36 H14          7.8200    -1.5000     1.2780 hc         1 RPG       0.035700
     37 H15          9.0760    -2.8140    -0.4600 hc         1 RPG       0.037700
     38 H16          9.2980    -1.3460    -1.4100 hc         1 RPG       0.037700
     39 H17         10.4130    -1.8090     1.4220 hc         1 RPG       0.030367
     40 H18         11.3460    -1.8590    -0.0900 hc         1 RPG       0.030367
     41 H19         10.6370    -0.3260     0.4630 hc         1 RPG       0.030367
     42 H20          3.1140    -0.4820    -2.1940 ho         1 RPG       0.437000
     43 H21          0.1690     0.3820    -0.7910 hc         1 RPG       0.082700
     44 H22         -1.1750    -0.5360     1.1150 hc         1 RPG       0.040200
     45 H23         -1.5240     1.0970     1.6540 hc         1 RPG       0.040200
     46 H24         -2.7090     1.5650    -0.5070 hc         1 RPG       0.044700
     47 H25         -2.3160    -0.0580    -1.0760 hc         1 RPG       0.044700
     48 H26         -3.6470    -1.0390     0.8150 hc         1 RPG       0.032200
     49 H27         -4.0320     0.5840     1.3870 hc         1 RPG       0.032200
     50 H28         -5.2140     1.0670    -0.7760 hc         1 RPG       0.025700
     51 H29         -4.8280    -0.5560    -1.3490 hc         1 RPG       0.025700
     52 H30         -6.1590    -1.5400     0.5430 hc         1 RPG       0.037200
     53 H31         -6.5440     0.0820     1.1160 hc         1 RPG       0.037200
     54 H32         -7.7090     0.5880    -0.9830 hc         1 RPG       0.015200
     55 H33         -7.3070    -1.1030    -1.5800 hc         1 RPG       0.015200
@<TRIPOS>BOND
     1     1     2 2   
     2     2     3 1   
     3     2    15 1   
     4     3     4 2   
     5     3    25 1   
     6     4     5 1   
     7     4    26 1   
     8     5     6 1   
     9     5    15 1   
    10     5    27 1   
    11     6     7 2   
    12     6    28 1   
    13     7     8 1   
    14     7    29 1   
    15     8     9 1   
    16     8    14 1   
    17     8    30 1   
    18     9    10 1   
    19     9    31 1   
    20     9    32 1   
    21    10    11 1   
    22    10    33 1   
    23    10    34 1   
    24    11    12 1   
    25    11    35 1   
    26    11    36 1   
    27    12    13 1   
    28    12    37 1   
    29    12    38 1   
    30    13    39 1   
    31    13    40 1   
    32    13    41 1   
    33    14    42 1   
    34    15    16 1   
    35    15    43 1   
    36    16    17 1   
    37    16    44 1   
    38    16    45 1   
    39    17    18 1   
    40    17    46 1   
    41    17    47 1   
    42    18    19 1   
    43    18    48 1   
    44    18    49 1   
    45    19    20 1   
    46    19    50 1   
    47    19    51 1   
    48    20    21 1   
    49    20    52 1   
    50    20    53 1   
    51    21    22 1   
    52    21    54 1   
    53    21    55 1   
    54    22    23 1   
    55    22    24 1   
@<TRIPOS>SUBSTRUCTURE
     1 RPG         1 TEMP              0 ****  ****    0 ROOT
