@<TRIPOS>MOLECULE
RPH
   27    28     1     0     0
SMALL
No Charge or Current Charge


@<TRIPOS>ATOM
      1 O2           1.8120     0.8260    -2.6520 o          1 RPH      -0.491100
      2 OH2          0.9490    -0.0990     3.4730 oh         1 RPH      -0.665000
      3 N5           0.4460    -1.1090    -0.8080 n7         1 RPH      -0.868400
      4 C7           0.6740     0.4380    -2.9090 c          1 RPH       0.573900
      5 C8          -0.1750    -0.6020    -2.0880 c5         1 RPH       0.057500
      6 C9          -1.5420     0.0450    -1.6670 c5         1 RPH      -0.080400
      7 C10         -1.4340     0.1440    -0.1200 c5         1 RPH      -0.063700
      8 C11         -0.7210     1.4240     0.4070 c6         1 RPH      -0.061400
      9 C12         -0.3210     1.2630     1.8940 c6         1 RPH      -0.106400
     10 C13          0.5860     0.0180     2.0920 c6         1 RPH       0.171300
     11 C14         -0.1360    -1.2750     1.6260 c6         1 RPH      -0.059400
     12 C15         -0.6590    -1.1680     0.1700 c5         1 RPH       0.182500
     13 HN5          0.8700    -2.0370    -0.9410 hn         1 RPH       0.427000
     14 H7           0.1630     0.8020    -3.8280 h4         1 RPH      -0.022800
     15 H8          -0.3760    -1.4440    -2.7660 h1         1 RPH       0.042700
     16 H91         -2.3760    -0.6070    -1.9540 hc         1 RPH       0.050700
     17 H92         -1.7300     1.0180    -2.1370 hc         1 RPH       0.050700
     18 H10         -2.4230     0.1320     0.3550 hc         1 RPH       0.057700
     19 H111        -1.3810     2.2940     0.2870 hc         1 RPH       0.046200
     20 H112         0.1780     1.6350    -0.1870 hc         1 RPH       0.046200
     21 H121        -1.2240     1.1750     2.5150 hc         1 RPH       0.042700
     22 H122         0.2050     2.1670     2.2300 hc         1 RPH       0.042700
     23 H13          1.4910     0.1480     1.4800 h1         1 RPH       0.055700
     24 H141         0.5370    -2.1380     1.7180 hc         1 RPH       0.053200
     25 H142        -0.9870    -1.4760     2.2900 hc         1 RPH       0.053200
     26 H15         -1.2910    -2.0420    -0.0390 h1         1 RPH       0.022700
     27 HO2          1.4300     0.7250     3.7070 ho         1 RPH       0.441000
@<TRIPOS>BOND
     1     1     4 2   
     2     2    10 1   
     3     2    27 1   
     4     3     5 1   
     5     3    12 1   
     6     3    13 1   
     7     4     5 1   
     8     4    14 1   
     9     5     6 1   
    10     5    15 1   
    11     6     7 1   
    12     6    16 1   
    13     6    17 1   
    14     7     8 1   
    15     7    12 1   
    16     7    18 1   
    17     8     9 1   
    18     8    19 1   
    19     8    20 1   
    20     9    10 1   
    21     9    21 1   
    22     9    22 1   
    23    10    11 1   
    24    10    23 1   
    25    11    12 1   
    26    11    24 1   
    27    11    25 1   
    28    12    26 1   
@<TRIPOS>SUBSTRUCTURE
     1 RPH         1 TEMP              0 ****  ****    0 ROOT
