@<TRIPOS>MOLECULE
RPH
   27    28     1     0     0
SMALL
bcc


@<TRIPOS>ATOM
      1 O2           1.8540     0.6740    -2.3820 o          1 RPH      -0.491100
      2 OH2          1.0500    -0.0950     3.3370 oh         1 RPH      -0.602800
      3 N5           0.3710    -1.1220    -0.8190 n7         1 RPH      -0.813200
      4 C7           0.7340     0.3960    -2.7270 c          1 RPH       0.573900
      5 C8          -0.1800    -0.5860    -2.0450 c5         1 RPH       0.057500
      6 C9          -1.5290     0.0660    -1.6480 c5         1 RPH      -0.080400
      7 C10         -1.4710     0.1110    -0.1210 c5         1 RPH      -0.063700
      8 C11         -0.7840     1.3770     0.3930 c6         1 RPH      -0.061400
      9 C12         -0.3440     1.2460     1.8450 c6         1 RPH      -0.106400
     10 C13          0.5980     0.0600     2.0040 c6         1 RPH       0.148100
     11 C14         -0.1130    -1.2220     1.6060 c6         1 RPH      -0.059400
     12 C15         -0.6770    -1.1580     0.1940 c5         1 RPH       0.182500
     13 HN5          0.8070    -2.0230    -0.9530 hn         1 RPH       0.371800
     14 H7           0.2870     0.8520    -3.6310 h4         1 RPH      -0.022800
     15 H8          -0.3750    -1.3540    -2.8090 h1         1 RPH       0.042700
     16 H91         -2.3530    -0.5650    -1.9820 hc         1 RPH       0.050700
     17 H92         -1.6810     1.0510    -2.0950 hc         1 RPH       0.050700
     18 H10         -2.4720     0.0450     0.3120 hc         1 RPH       0.057700
     19 H111        -1.4640     2.2240     0.2770 hc         1 RPH       0.046200
     20 H112         0.0950     1.6070    -0.2180 hc         1 RPH       0.046200
     21 H121        -1.2140     1.1090     2.4980 hc         1 RPH       0.042700
     22 H122         0.1500     2.1690     2.1650 hc         1 RPH       0.042700
     23 H13          1.4480     0.2060     1.3220 h1         1 RPH       0.055700
     24 H141         0.5660    -2.0770     1.6910 hc         1 RPH       0.053200
     25 H142        -0.9380    -1.4050     2.3040 hc         1 RPH       0.053200
     26 H15         -1.3490    -2.0200     0.0580 h1         1 RPH       0.022700
     27 HO2          1.5490     0.6920     3.5750 ho         1 RPH       0.402000
@<TRIPOS>BOND
     1     1     4 2   
     2     2    10 1   
     3     2    27 1   
     4     3     5 1   
     5     3    12 1   
     6     3    13 1   
     7     4     5 1   
     8     4    14 1   
     9     5     6 1   
    10     5    15 1   
    11     6     7 1   
    12     6    16 1   
    13     6    17 1   
    14     7     8 1   
    15     7    12 1   
    16     7    18 1   
    17     8     9 1   
    18     8    19 1   
    19     8    20 1   
    20     9    10 1   
    21     9    21 1   
    22     9    22 1   
    23    10    11 1   
    24    10    23 1   
    25    11    12 1   
    26    11    24 1   
    27    11    25 1   
    28    12    26 1   
@<TRIPOS>SUBSTRUCTURE
     1 RPH         1 TEMP              0 ****  ****    0 ROOT
