@<TRIPOS>MOLECULE
RPI
   28    27     1     0     0
SMALL
No Charge or Current Charge


@<TRIPOS>ATOM
      1 P           22.6620    26.8000     7.8930 p5         1 RPI       1.243800
      2 N           26.5210    26.7890    14.7160 n8         1 RPI      -0.885800
      3 CA          25.5920    27.7600    14.0170 c3         1 RPI       0.007500
      4 CB          24.3560    27.0160    13.4340 c3         1 RPI      -0.056400
      5 CG          24.6590    25.9240    12.3700 c3         1 RPI      -0.063400
      6 CD          25.3310    26.4310    11.0710 c3         1 RPI       0.264800
      7 NE          24.4290    27.2740    10.2960 nu         1 RPI      -0.935200
      8 CZ          24.7350    27.6970     9.0790 c2         1 RPI       0.869100
      9 NH1         25.7160    28.4720     8.9750 n2         1 RPI      -1.097100
     10 NH2         23.6580    27.9630     8.3870 nu         1 RPI      -0.775300
     11 O1P         23.4450    25.8460     7.0720 o          1 RPI      -0.908167
     12 O2P         21.5940    27.4580     7.1020 o          1 RPI      -0.908167
     13 O3P         22.1240    26.1760     9.1280 o          1 RPI      -0.908167
     14 C           25.1320    29.0290    14.8590 c          1 RPI       0.895600
     15 O           25.5570    30.1340    14.5370 o          1 RPI      -0.848800
     16 OXT         24.4440    28.8610    15.8620 o          1 RPI      -0.848800
     17 H4          26.1510    28.1740    13.1680 h1         1 RPI       0.063700
     18 H5          23.6790    27.7570    12.9900 hc         1 RPI       0.056200
     19 H6          23.7970    26.5550    14.2580 hc         1 RPI       0.056200
     20 H7          23.7220    25.4170    12.1080 hc         1 RPI       0.008200
     21 H8          25.3010    25.1550    12.8160 hc         1 RPI       0.008200
     22 H9          25.6060    25.5620    10.4600 h1         1 RPI      -0.014300
     23 H10         26.2530    26.9780    11.3070 h1         1 RPI      -0.014300
     24 H11         23.4890    26.8800    10.1930 hn         1 RPI       0.516800
     25 H12         26.2420    28.3490     9.8450 hn         1 RPI       0.304400
     26 H14         23.8730    28.5120     7.5820 hn         1 RPI       0.363800
     27 H1          27.3500    27.2940    15.0460 hn         1 RPI       0.301800
     28 H2          26.0670    26.4580    15.5730 hn         1 RPI       0.301800
@<TRIPOS>BOND
     1     1    10 1   
     2     1    11 1   
     3     1    12 1   
     4     1    13 1   
     5     2     3 1   
     6     2    27 1   
     7     2    28 1   
     8     3     4 1   
     9     3    14 1   
    10     3    17 1   
    11     4     5 1   
    12     4    18 1   
    13     4    19 1   
    14     5     6 1   
    15     5    20 1   
    16     5    21 1   
    17     6     7 1   
    18     6    22 1   
    19     6    23 1   
    20     7     8 1   
    21     7    24 1   
    22     8     9 2   
    23     8    10 1   
    24     9    25 1   
    25    10    26 1   
    26    14    15 1   
    27    14    16 1   
@<TRIPOS>SUBSTRUCTURE
     1 RPI         1 TEMP              0 ****  ****    0 ROOT
