@<TRIPOS>MOLECULE
RPI
   28    27     1     0     0
SMALL
bcc


@<TRIPOS>ATOM
      1 P           22.3260    27.8470     8.7290 p5         1 RPI       1.243800
      2 N           26.3200    27.1920    14.4870 n8         1 RPI      -0.885800
      3 CA          25.1670    27.7340    13.7810 c3         1 RPI       0.007500
      4 CB          24.3390    26.5910    13.1870 c3         1 RPI      -0.056400
      5 CG          25.1140    25.6460    12.2710 c3         1 RPI      -0.063400
      6 CD          25.7800    26.3070    11.0710 c3         1 RPI       0.264800
      7 NE          24.8080    26.9350    10.2190 nu         1 RPI      -0.935200
      8 CZ          25.1210    27.5070     9.0220 c2         1 RPI       0.869100
      9 NH1         26.2870    27.4900     8.4530 n2         1 RPI      -1.097100
     10 NH2         24.0700    28.1460     8.4220 nu         1 RPI      -0.775300
     11 O1P         22.0240    26.4670     8.1610 o          1 RPI      -0.908167
     12 O2P         21.6700    29.0100     8.0030 o          1 RPI      -0.908167
     13 O3P         22.2530    27.9150    10.2650 o          1 RPI      -0.908167
     14 C           24.2350    28.6400    14.6260 c          1 RPI       0.895600
     15 O           23.4490    29.3640    13.9800 o          1 RPI      -0.848800
     16 OXT         24.3270    28.5580    15.8670 o          1 RPI      -0.848800
     17 H4          25.5450    28.3440    12.9530 h1         1 RPI       0.063700
     18 H5          23.4810    27.0150    12.6610 hc         1 RPI       0.056200
     19 H6          23.9170    25.9990    14.0080 hc         1 RPI       0.056200
     20 H7          24.4390    24.8630    11.9120 hc         1 RPI       0.008200
     21 H8          25.8920    25.1440    12.8480 hc         1 RPI       0.008200
     22 H9          26.3230    25.5340    10.5150 h1         1 RPI      -0.014300
     23 H10         26.5420    27.0160    11.4220 h1         1 RPI      -0.014300
     24 H11         23.8870    27.2000    10.5830 hn         1 RPI       0.516800
     25 H12         26.9700    27.0360     9.0490 hn         1 RPI       0.304400
     26 H14         24.3130    28.4870     7.5040 hn         1 RPI       0.363800
     27 H1          26.9040    27.9610    14.7940 hn         1 RPI       0.301800
     28 H2          25.9840    26.7740    15.3490 hn         1 RPI       0.301800
@<TRIPOS>BOND
     1     1    10 1   
     2     1    11 1   
     3     1    12 1   
     4     1    13 1   
     5     2     3 1   
     6     2    27 1   
     7     2    28 1   
     8     3     4 1   
     9     3    14 1   
    10     3    17 1   
    11     4     5 1   
    12     4    18 1   
    13     4    19 1   
    14     5     6 1   
    15     5    20 1   
    16     5    21 1   
    17     6     7 1   
    18     6    22 1   
    19     6    23 1   
    20     7     8 1   
    21     7    24 1   
    22     8     9 2   
    23     8    10 1   
    24     9    25 1   
    25    10    26 1   
    26    14    15 1   
    27    14    16 1   
@<TRIPOS>SUBSTRUCTURE
     1 RPI         1 TEMP              0 ****  ****    0 ROOT
