@<TRIPOS>MOLECULE
RPJ
   45    48     1     0     0
SMALL
No Charge or Current Charge


@<TRIPOS>ATOM
      1 C10          8.3870     9.4370    34.5100 ca         1 RPJ      -0.152500
      2 C13          6.7660    10.7910    33.3010 ca         1 RPJ      -0.152500
      3 C15         10.0550    11.5360    30.4960 cc         1 RPJ       0.047100
      4 C17          9.5090     9.6840    28.9870 c3         1 RPJ       0.163600
      5 C20          8.8700     6.6820    28.4290 cc         1 RPJ      -0.122400
      6 C21          7.7240     5.9520    28.7290 cd         1 RPJ      -0.173100
      7 C24          7.3630     6.3790    25.1650 ca         1 RPJ      -0.143000
      8 C26          9.4280     7.6450    24.7920 ca         1 RPJ      -0.146000
      9 C28          8.8310     6.9090    27.0100 ca         1 RPJ      -0.096800
     10 O01         13.0070    12.4550    28.6220 o          1 RPJ      -0.720500
     11 O03         11.0660    12.1340    27.7780 o          1 RPJ      -0.720500
     12 C04         11.3140    11.9080    30.0980 cd         1 RPJ      -0.229600
     13 C05         12.0530    12.0560    31.3010 cd         1 RPJ       0.277900
     14 N06         11.3760    11.7430    32.4010 nc         1 RPJ      -0.571800
     15 N07         10.1550    11.3870    31.8700 na         1 RPJ       0.157000
     16 C08          9.1320    10.8880    32.6860 ca         1 RPJ       0.041800
     17 C09          9.4190     9.9500    33.7020 ca         1 RPJ      -0.085500
     18 C11          7.0650     9.8600    34.3060 ca         1 RPJ       0.139000
     19 F12          6.0750     9.3670    35.0820 f          1 RPJ      -0.196000
     20 C14          7.7960    11.3040    32.4920 ca         1 RPJ      -0.085500
     21 C18          9.6090     8.5350    30.0190 c3         1 RPJ      -0.110400
     22 C19          9.9230     7.1570    29.3960 c3         1 RPJ      -0.000200
     23 N22          6.9780     5.7270    27.5460 na         1 RPJ      -0.230700
     24 C23          7.6910     6.3290    26.5270 ca         1 RPJ      -0.049200
     25 C25          8.2470     7.0490    24.2920 ca         1 RPJ      -0.093000
     26 C27          9.7340     7.5780    26.1690 ca         1 RPJ      -0.043000
     27 H1           8.6110     8.7140    35.2900 ha         1 RPJ       0.122000
     28 H2           5.7390    11.1140    33.1480 ha         1 RPJ       0.122000
     29 H3           8.7330     9.4400    28.2510 h1         1 RPJ       0.075200
     30 H4          10.4600     9.7820    28.4520 h1         1 RPJ       0.075200
     31 H5           7.3850     5.5870    29.6950 h4         1 RPJ       0.207000
     32 H6           6.4540     5.9150    24.7900 ha         1 RPJ       0.102000
     33 H7          10.1060     8.1570    24.1130 ha         1 RPJ       0.113000
     34 H9          13.0860    12.3690    31.4020 h4         1 RPJ       0.039100
     35 H10         10.4420     9.6140    33.8610 ha         1 RPJ       0.139500
     36 H11          7.5580    12.0260    31.7140 ha         1 RPJ       0.139500
     37 H12         10.3970     8.7670    30.7450 hc         1 RPJ       0.045700
     38 H13          8.6670     8.4690    30.5770 hc         1 RPJ       0.045700
     39 H14         10.0300     6.4240    30.2050 hc         1 RPJ       0.042700
     40 H15         10.8980     7.2010    28.8960 hc         1 RPJ       0.042700
     41 H16          6.0970     5.2270    27.4620 hn         1 RPJ       0.341000
     42 H17          8.0190     7.1040    23.2300 ha         1 RPJ       0.101000
     43 H18         10.6420     8.0300    26.5600 ha         1 RPJ       0.132000
     44 C02         11.8260    12.1640    28.7330 c          1 RPJ       0.741600
     45 O16          9.1500    10.8980    29.6820 os         1 RPJ      -0.330100
@<TRIPOS>BOND
     1     1    17 ar  
     2     1    18 ar  
     3     1    27 1   
     4     2    18 ar  
     5     2    20 ar  
     6     2    28 1   
     7     3    12 2   
     8     3    15 1   
     9     3    45 1   
    10     4    21 1   
    11     4    29 1   
    12     4    30 1   
    13     4    45 1   
    14     5     6 2   
    15     5     9 1   
    16     5    22 1   
    17     6    23 1   
    18     6    31 1   
    19     7    24 ar  
    20     7    25 ar  
    21     7    32 1   
    22     8    25 ar  
    23     8    26 ar  
    24     8    33 1   
    25     9    24 ar  
    26     9    26 ar  
    27    10    44 1   
    28    11    44 1   
    29    12    13 1   
    30    12    44 1   
    31    13    14 2   
    32    13    34 1   
    33    14    15 1   
    34    15    16 1   
    35    16    17 ar  
    36    16    20 ar  
    37    17    35 1   
    38    18    19 1   
    39    20    36 1   
    40    21    22 1   
    41    21    37 1   
    42    21    38 1   
    43    22    39 1   
    44    22    40 1   
    45    23    24 1   
    46    23    41 1   
    47    25    42 1   
    48    26    43 1   
@<TRIPOS>SUBSTRUCTURE
     1 RPJ         1 TEMP              0 ****  ****    0 ROOT
