@<TRIPOS>MOLECULE
RPJ
   45    48     1     0     0
SMALL
bcc


@<TRIPOS>ATOM
      1 C10          8.3270     9.4030    34.3420 ca         1 RPJ      -0.170500
      2 C13          6.7150    10.4760    32.8970 ca         1 RPJ      -0.170500
      3 C15         10.3160    11.4180    30.4910 cc         1 RPJ       0.097800
      4 C17          9.6720     9.6680    29.0550 c3         1 RPJ       0.140400
      5 C20          8.9050     6.7340    28.4580 cc         1 RPJ      -0.122400
      6 C21          7.7760     6.0690    28.8490 cd         1 RPJ      -0.123100
      7 C24          7.0860     6.4010    25.3360 ca         1 RPJ      -0.161000
      8 C26          9.1330     7.5740    24.7620 ca         1 RPJ      -0.164000
      9 C28          8.7680     6.9420    27.0460 ca         1 RPJ      -0.096800
     10 O01         13.3770    12.7840    29.0380 o          1 RPJ      -0.825800
     11 O03         11.6270    11.9990    27.8910 o          1 RPJ      -0.825800
     12 C04         11.5490    11.9900    30.2430 cd         1 RPJ      -0.294900
     13 C05         12.0230    12.3000    31.5340 cd         1 RPJ       0.343200
     14 N06         11.1790    11.9620    32.4830 nc         1 RPJ      -0.571800
     15 N07         10.1310    11.4220    31.8390 na         1 RPJ       0.106300
     16 C08          9.0680    10.8450    32.5620 ca         1 RPJ       0.041800
     17 C09          9.3540    10.0080    33.6350 ca         1 RPJ      -0.103500
     18 C11          7.0230     9.6380    33.9500 ca         1 RPJ       0.103900
     19 F12          6.0240     9.0350    34.6140 f          1 RPJ      -0.160900
     20 C14          7.7480    11.0910    32.2050 ca         1 RPJ      -0.103500
     21 C18          9.7770     8.5200    30.0400 c3         1 RPJ      -0.110400
     22 C19         10.0290     7.1810    29.3390 c3         1 RPJ      -0.000200
     23 N22          6.9550     5.8560    27.7760 na         1 RPJ      -0.180400
     24 C23          7.5320     6.3760    26.6570 ca         1 RPJ      -0.049200
     25 C25          7.9000     7.0060    24.3990 ca         1 RPJ      -0.111000
     26 C27          9.5720     7.5480    26.0720 ca         1 RPJ      -0.061000
     27 H1           8.5430     8.7470    35.1750 ha         1 RPJ       0.140000
     28 H2           5.6850    10.6580    32.6220 ha         1 RPJ       0.140000
     29 H3           8.8470     9.5100    28.3610 h1         1 RPJ       0.075200
     30 H4          10.5900     9.7690    28.4710 h1         1 RPJ       0.075200
     31 H5           7.4940     5.7220    29.8310 h4         1 RPJ       0.157000
     32 H6           6.1360     5.9630    25.0550 ha         1 RPJ       0.120000
     33 H7           9.7460     8.0390    24.0000 ha         1 RPJ       0.131000
     34 H9          12.9570    12.7770    31.7890 h4         1 RPJ       0.039100
     35 H10         10.3820     9.8180    33.9130 ha         1 RPJ       0.157500
     36 H11          7.5120    11.7660    31.3940 ha         1 RPJ       0.157500
     37 H12         10.5990     8.7040    30.7390 hc         1 RPJ       0.045700
     38 H13          8.8620     8.4520    30.6340 hc         1 RPJ       0.045700
     39 H14         10.2110     6.4270    30.1080 hc         1 RPJ       0.042700
     40 H15         10.9530     7.2440    28.7560 hc         1 RPJ       0.042700
     41 H16          6.0720     5.3750    27.8120 hn         1 RPJ       0.290700
     42 H17          7.5830     7.0430    23.3640 ha         1 RPJ       0.119000
     43 H18         10.5250     7.9890    26.3390 ha         1 RPJ       0.150000
     44 C02         12.2420    12.2780    28.9410 c          1 RPJ       0.952200
     45 O16          9.3720    10.9180    29.6970 os         1 RPJ      -0.306900
@<TRIPOS>BOND
     1     1    17 ar  
     2     1    18 ar  
     3     1    27 1   
     4     2    18 ar  
     5     2    20 ar  
     6     2    28 1   
     7     3    12 2   
     8     3    15 1   
     9     3    45 1   
    10     4    21 1   
    11     4    29 1   
    12     4    30 1   
    13     4    45 1   
    14     5     6 2   
    15     5     9 1   
    16     5    22 1   
    17     6    23 1   
    18     6    31 1   
    19     7    24 ar  
    20     7    25 ar  
    21     7    32 1   
    22     8    25 ar  
    23     8    26 ar  
    24     8    33 1   
    25     9    24 ar  
    26     9    26 ar  
    27    10    44 1   
    28    11    44 1   
    29    12    13 1   
    30    12    44 1   
    31    13    14 2   
    32    13    34 1   
    33    14    15 1   
    34    15    16 1   
    35    16    17 ar  
    36    16    20 ar  
    37    17    35 1   
    38    18    19 1   
    39    20    36 1   
    40    21    22 1   
    41    21    37 1   
    42    21    38 1   
    43    22    39 1   
    44    22    40 1   
    45    23    24 1   
    46    23    41 1   
    47    25    42 1   
    48    26    43 1   
@<TRIPOS>SUBSTRUCTURE
     1 RPJ         1 TEMP              0 ****  ****    0 ROOT
