@<TRIPOS>MOLECULE
RPK
   41    43     1     0     0
SMALL
abcg2


@<TRIPOS>ATOM
      1 N1         -16.5910     3.5830    26.3150 nb         1 RPK      -0.657000
      2 C4         -16.2970     7.1050    25.2320 ca         1 RPK      -0.056000
      3 C5         -16.8570     5.9000    25.7210 ca         1 RPK      -0.117000
      4 C6         -16.0970     4.7220    25.8770 ca         1 RPK       0.363900
      5 C7         -17.9040     3.5570    26.6510 ca         1 RPK       0.314900
      6 C8         -18.7440     4.6380    26.5450 ca         1 RPK      -0.079000
      7 C10        -22.1520     4.7740    28.1960 c3         1 RPK      -0.109100
      8 C13        -22.8310     4.1460    31.8870 ca         1 RPK      -0.100000
      9 C15        -22.2680     2.0750    30.8440 ca         1 RPK       0.126000
     10 C17        -18.2400     5.8700    26.0490 ca         1 RPK       0.026000
     11 CL         -21.9970     0.3450    30.9500 cl         1 RPK      -0.215000
     12 C14        -22.6180     2.7760    31.9900 ca         1 RPK      -0.097000
     13 C12        -22.6950     4.7940    30.6640 ca         1 RPK      -0.084000
     14 C16        -22.1280     2.7040    29.6170 ca         1 RPK      -0.101000
     15 C11        -22.3430     4.0790    29.5210 ca         1 RPK      -0.070300
     16 C9         -20.6830     5.1080    27.9680 c          1 RPK       0.603100
     17 O1         -20.0730     5.8760    28.7010 o          1 RPK      -0.569100
     18 N2         -20.1110     4.4950    26.8990 ns         1 RPK      -0.169000
     19 C3         -17.0760     8.2120    25.0670 ca         1 RPK      -0.152000
     20 C18        -19.0370     7.0180    25.8600 ca         1 RPK      -0.122000
     21 C2         -18.4650     8.1770    25.3750 ca         1 RPK      -0.009000
     22 N          -19.1710     9.3630    25.1540 ns         1 RPK      -0.148000
     23 C1         -20.4900     9.6420    25.3840 c          1 RPK       0.605100
     24 O          -21.2860     8.8250    25.8310 o          1 RPK      -0.581100
     25 C          -20.9070    11.0540    25.0510 c3         1 RPK      -0.177100
     26 H1         -15.2420     7.1350    24.9880 ha         1 RPK       0.119000
     27 H2         -15.0420     4.7410    25.6210 h4         1 RPK       0.019100
     28 H3         -18.2920     2.6150    27.0230 h4         1 RPK       0.022100
     29 H4         -22.6940     5.7210    28.1890 hc         1 RPK       0.071700
     30 H5         -22.5370     4.1580    27.3840 hc         1 RPK       0.071700
     31 H6         -23.1080     4.7090    32.7700 ha         1 RPK       0.121000
     32 H7         -22.7240     2.2640    32.9360 ha         1 RPK       0.131000
     33 H8         -22.8660     5.8610    30.5950 ha         1 RPK       0.125000
     34 H9         -21.8540     2.1310    28.7400 ha         1 RPK       0.123000
     35 H10        -20.6490     3.7940    26.4120 hn         1 RPK       0.155000
     36 H11        -16.6460     9.1340    24.6940 ha         1 RPK       0.112000
     37 H12        -20.0850     6.9920    26.0900 ha         1 RPK       0.158000
     38 H13        -18.6190    10.1240    24.7880 hn         1 RPK       0.149000
     39 H14        -21.2230    11.5470    25.9720 hc         1 RPK       0.065367
     40 H15        -20.1180    11.6420    24.5860 hc         1 RPK       0.065367
     41 H16        -21.7690    11.0130    24.3830 hc         1 RPK       0.065367
@<TRIPOS>BOND
     1     1     4 ar  
     2     1     5 ar  
     3     2     3 ar  
     4     2    19 ar  
     5     2    26 1   
     6     3     4 ar  
     7     3    10 ar  
     8     4    27 1   
     9     5     6 ar  
    10     5    28 1   
    11     6    10 ar  
    12     6    18 1   
    13     7    15 1   
    14     7    16 1   
    15     7    29 1   
    16     7    30 1   
    17     8    12 ar  
    18     8    13 ar  
    19     8    31 1   
    20     9    11 1   
    21     9    12 ar  
    22     9    14 ar  
    23    10    20 ar  
    24    12    32 1   
    25    13    15 ar  
    26    13    33 1   
    27    14    15 ar  
    28    14    34 1   
    29    16    17 2   
    30    16    18 1   
    31    18    35 1   
    32    19    21 ar  
    33    19    36 1   
    34    20    21 ar  
    35    20    37 1   
    36    21    22 1   
    37    22    23 1   
    38    22    38 1   
    39    23    24 2   
    40    23    25 1   
    41    25    39 1   
    42    25    40 1   
    43    25    41 1   
@<TRIPOS>SUBSTRUCTURE
     1 RPK         1 TEMP              0 ****  ****    0 ROOT
