@<TRIPOS>MOLECULE
RPK
   41    43     1     0     0
SMALL
No Charge or Current Charge


@<TRIPOS>ATOM
      1 N1         -16.5670     3.6200    26.5020 nb         1 RPK      -0.657000
      2 C4         -16.2860     7.0750    25.2190 ca         1 RPK      -0.056000
      3 C5         -16.8550     5.9200    25.7840 ca         1 RPK      -0.117000
      4 C6         -16.0730     4.7660    25.9830 ca         1 RPK       0.363900
      5 C7         -17.8720     3.6050    26.8570 ca         1 RPK       0.314900
      6 C8         -18.7330     4.7140    26.7230 ca         1 RPK      -0.079000
      7 C10        -22.2410     4.8900    28.2980 c3         1 RPK      -0.109100
      8 C13        -22.7270     3.8920    31.9750 ca         1 RPK      -0.100000
      9 C15        -22.3560     1.8740    30.6710 ca         1 RPK       0.126000
     10 C17        -18.2170     5.9040    26.1500 ca         1 RPK       0.026000
     11 Cl         -22.1920     0.1250    30.5840 cl         1 RPK      -0.215000
     12 C14        -22.5980     2.4940    31.9070 ca         1 RPK      -0.097000
     13 C12        -22.6130     4.6660    30.8070 ca         1 RPK      -0.084000
     14 C16        -22.2420     2.6460    29.5030 ca         1 RPK      -0.101000
     15 C11        -22.3710     4.0480    29.5640 ca         1 RPK      -0.070300
     16 C9         -20.7870     5.3290    28.0870 c          1 RPK       0.603100
     17 O1         -20.2890     6.2580    28.7140 o          1 RPK      -0.569100
     18 N2         -20.0780     4.5750    27.1650 ns         1 RPK      -0.169000
     19 C3         -17.0780     8.2130    25.0020 ca         1 RPK      -0.152000
     20 C18        -19.0100     7.0490    25.9060 ca         1 RPK      -0.122000
     21 C2         -18.4450     8.2100    25.3320 ca         1 RPK      -0.009000
     22 N          -19.1840     9.3970    25.0680 ns         1 RPK      -0.148000
     23 C1         -20.5340     9.7050    25.1760 c          1 RPK       0.605100
     24 O          -21.4020     8.9190    25.5360 o          1 RPK      -0.581100
     25 C          -20.8750    11.1430    24.7950 c3         1 RPK      -0.177100
     26 H1         -15.2330     7.0920    24.9430 ha         1 RPK       0.119000
     27 H2         -15.0190     4.7520    25.7060 h4         1 RPK       0.019100
     28 H3         -18.2380     2.6720    27.2820 h4         1 RPK       0.022100
     29 H4         -22.8680     5.7850    28.3850 hc         1 RPK       0.071700
     30 H5         -22.5750     4.2980    27.4380 hc         1 RPK       0.071700
     31 H6         -22.9140     4.3750    32.9320 ha         1 RPK       0.121000
     32 H7         -22.6850     1.8930    32.8090 ha         1 RPK       0.131000
     33 H8         -22.7110     5.7490    30.8700 ha         1 RPK       0.125000
     34 H9         -22.0540     2.1520    28.5530 ha         1 RPK       0.123000
     35 H10        -20.5820     3.7930    26.7660 hn         1 RPK       0.155000
     36 H11        -16.6260     9.0990    24.5630 ha         1 RPK       0.112000
     37 H12        -20.0620     7.0280    26.1570 ha         1 RPK       0.158000
     38 H13        -18.6130    10.1650    24.7400 hn         1 RPK       0.149000
     39 H14        -20.2700    11.8260    25.4020 hc         1 RPK       0.065367
     40 H15        -20.5050    11.3410    23.7820 hc         1 RPK       0.065367
     41 H16        -21.9450    11.3610    24.8850 hc         1 RPK       0.065367
@<TRIPOS>BOND
     1     1     4 ar  
     2     1     5 ar  
     3     2     3 ar  
     4     2    19 ar  
     5     2    26 1   
     6     3     4 ar  
     7     3    10 ar  
     8     4    27 1   
     9     5     6 ar  
    10     5    28 1   
    11     6    10 ar  
    12     6    18 1   
    13     7    15 1   
    14     7    16 1   
    15     7    29 1   
    16     7    30 1   
    17     8    12 ar  
    18     8    13 ar  
    19     8    31 1   
    20     9    11 1   
    21     9    12 ar  
    22     9    14 ar  
    23    10    20 ar  
    24    12    32 1   
    25    13    15 ar  
    26    13    33 1   
    27    14    15 ar  
    28    14    34 1   
    29    16    17 2   
    30    16    18 1   
    31    18    35 1   
    32    19    21 ar  
    33    19    36 1   
    34    20    21 ar  
    35    20    37 1   
    36    21    22 1   
    37    22    23 1   
    38    22    38 1   
    39    23    24 2   
    40    23    25 1   
    41    25    39 1   
    42    25    40 1   
    43    25    41 1   
@<TRIPOS>SUBSTRUCTURE
     1 RPK         1 TEMP              0 ****  ****    0 ROOT
