@<TRIPOS>MOLECULE
RPM
   48    51     1     0     0
SMALL
abcg2


@<TRIPOS>ATOM
      1 C10         11.3510     8.4880    28.9160 c3         1 RPM      -0.115400
      2 C13         11.9200    11.0460    30.6380 cc         1 RPM       0.044100
      3 C21          9.6430    10.3560    31.3820 ca         1 RPM       0.050800
      4 C22          8.8260    10.8870    30.3910 ca         1 RPM      -0.109500
      5 C24          7.0780     9.3540    31.0290 ca         1 RPM      -0.133000
      6 C26          9.1780     9.3370    32.2060 ca         1 RPM      -0.109500
      7 C28          9.2230     6.9410    26.3670 ca         1 RPM      -0.047000
      8 C02          8.0430     6.6030    25.7290 ca         1 RPM      -0.118300
      9 C03          7.4000     5.3920    26.0650 ca         1 RPM      -0.094000
     10 C04          7.9070     4.5250    27.0110 ca         1 RPM      -0.134000
     11 C05          9.0980     4.8810    27.6420 ca         1 RPM      -0.051200
     12 C07         10.9350     4.9950    28.8970 cc         1 RPM      -0.166100
     13 C08         10.9420     6.1390    28.1500 cd         1 RPM      -0.119400
     14 C09         11.9230     7.2630    28.1950 c3         1 RPM      -0.002200
     15 C11         12.2250     9.7100    28.7240 c3         1 RPM       0.167600
     16 C14         13.0630    11.4440    31.3050 cd         1 RPM      -0.228600
     17 C18         12.6620    11.4370    32.6560 cd         1 RPM       0.273900
     18 C23          7.5480    10.3750    30.2140 ca         1 RPM      -0.111500
     19 C25          7.8940     8.8440    32.0310 ca         1 RPM      -0.111500
     20 C27          9.7650     6.0840    27.3340 ca         1 RPM      -0.092800
     21 N06          9.8330     4.2410    28.5970 na         1 RPM      -0.230700
     22 N19         11.4090    11.0760    32.8160 nc         1 RPM      -0.568800
     23 N20         10.9550    10.8390    31.5740 na         1 RPM       0.160000
     24 O12         11.6530    10.8710    29.3450 os         1 RPM      -0.327100
     25 H1          10.3490     8.7010    28.5350 hc         1 RPM       0.049200
     26 H2          11.2420     8.2580    29.9800 hc         1 RPM       0.049200
     27 H3           9.1730    11.7000    29.7700 ha         1 RPM       0.133000
     28 H4           6.0790     8.9620    30.8890 ha         1 RPM       0.099000
     29 H5           9.8200     8.9290    32.9750 ha         1 RPM       0.133000
     30 H6           9.7260     7.8690    26.1160 ha         1 RPM       0.120000
     31 H7           6.4460     7.8480    24.9830 hc         1 RPM       0.034700
     32 H8           8.0550     8.3810    24.5110 hc         1 RPM       0.034700
     33 H9           7.3200     6.9840    23.7320 hc         1 RPM       0.034700
     34 H10          6.4750     5.1350    25.5610 ha         1 RPM       0.099000
     35 H11          7.3960     3.6000    27.2500 ha         1 RPM       0.104000
     36 H12         11.6460     4.6570    29.6360 h4         1 RPM       0.211000
     37 H13         12.8440     6.9430    28.6890 hc         1 RPM       0.045200
     38 H14         12.2040     7.5450    27.1750 hc         1 RPM       0.045200
     39 H15         12.3030     9.9550    27.6640 h1         1 RPM       0.068200
     40 H16         13.2370     9.5470    29.1010 h1         1 RPM       0.068200
     41 H17         13.2610    11.7030    33.5150 h4         1 RPM       0.038100
     42 H18          6.9140    10.7870    29.4400 ha         1 RPM       0.102000
     43 H19          7.5350     8.0500    32.6730 ha         1 RPM       0.102000
     44 H20          9.6110     3.3510    29.0110 hn         1 RPM       0.342000
     45 C15         14.4060    11.8460    30.7670 c          1 RPM       0.741600
     46 O16         14.5740    11.7810    29.5320 o          1 RPM      -0.722500
     47 O17         15.2350    12.2220    31.6200 o          1 RPM      -0.722500
     48 C01          7.4380     7.5010    24.6860 c3         1 RPM      -0.036800
@<TRIPOS>BOND
     1     1    14 1   
     2     1    15 1   
     3     1    25 1   
     4     1    26 1   
     5     2    16 2   
     6     2    23 1   
     7     2    24 1   
     8     3     4 ar  
     9     3     6 ar  
    10     3    23 1   
    11     4    18 ar  
    12     4    27 1   
    13     5    18 ar  
    14     5    19 ar  
    15     5    28 1   
    16     6    19 ar  
    17     6    29 1   
    18     7     8 ar  
    19     7    20 ar  
    20     7    30 1   
    21     8     9 ar  
    22     8    48 1   
    23     9    10 ar  
    24     9    34 1   
    25    10    11 ar  
    26    10    35 1   
    27    11    20 ar  
    28    11    21 1   
    29    12    13 2   
    30    12    21 1   
    31    12    36 1   
    32    13    14 1   
    33    13    20 1   
    34    14    37 1   
    35    14    38 1   
    36    15    24 1   
    37    15    39 1   
    38    15    40 1   
    39    16    17 1   
    40    16    45 1   
    41    17    22 2   
    42    17    41 1   
    43    18    42 1   
    44    19    43 1   
    45    21    44 1   
    46    22    23 1   
    47    31    48 1   
    48    32    48 1   
    49    33    48 1   
    50    45    46 1   
    51    45    47 1   
@<TRIPOS>SUBSTRUCTURE
     1 RPM         1 TEMP              0 ****  ****    0 ROOT
