@<TRIPOS>MOLECULE
RPM
   48    51     1     0     0
SMALL
No Charge or Current Charge


@<TRIPOS>ATOM
      1 C10         11.7520     8.4340    28.8030 c3         1 RPM      -0.115400
      2 C13         12.0900    10.7640    30.6740 cc         1 RPM       0.044100
      3 C21          9.7110    10.1150    30.7120 ca         1 RPM       0.050800
      4 C22          9.1380    10.7920    29.6160 ca         1 RPM      -0.109500
      5 C24          7.4020     9.0920    29.4580 ca         1 RPM      -0.133000
      6 C26          9.1140     8.9270    31.1800 ca         1 RPM      -0.109500
      7 C28          8.9780     7.1230    26.9670 ca         1 RPM      -0.047000
      8 C02          7.6140     6.8850    26.6760 ca         1 RPM      -0.118300
      9 C03          6.9960     5.6880    27.1220 ca         1 RPM      -0.094000
     10 C04          7.7280     4.7300    27.8580 ca         1 RPM      -0.134000
     11 C05          9.0740     5.0020    28.1300 ca         1 RPM      -0.051200
     12 C07         11.2380     4.9070    28.8670 cc         1 RPM      -0.166100
     13 C08         11.0380     6.0960    28.1740 cd         1 RPM      -0.119400
     14 C09         12.0760     7.1730    27.9780 c3         1 RPM      -0.002200
     15 C11         12.8250     9.5400    28.7020 c3         1 RPM       0.167600
     16 C14         12.8510    11.4860    31.5520 cd         1 RPM      -0.228600
     17 C18         12.0620    11.5860    32.7290 cd         1 RPM       0.273900
     18 C23          7.9870    10.2810    28.9900 ca         1 RPM      -0.111500
     19 C25          7.9660     8.4150    30.5520 ca         1 RPM      -0.111500
     20 C27          9.6720     6.1530    27.7030 ca         1 RPM      -0.092800
     21 N06          9.9950     4.2400    28.8240 na         1 RPM      -0.230700
     22 N19         10.8430    11.0670    32.6140 nc         1 RPM      -0.568800
     23 N20         10.8720    10.6040    31.3170 na         1 RPM       0.160000
     24 O12         12.3400    10.7480    29.3260 os         1 RPM      -0.327100
     25 H1          10.7930     8.8370    28.4630 hc         1 RPM       0.049200
     26 H2          11.6340     8.1400    29.8520 hc         1 RPM       0.049200
     27 H3           9.5920    11.7080    29.2460 ha         1 RPM       0.133000
     28 H4           6.5150     8.6940    28.9710 ha         1 RPM       0.099000
     29 H5           9.5510     8.3960    32.0230 ha         1 RPM       0.133000
     30 H6           9.4720     8.0320    26.6330 ha         1 RPM       0.120000
     31 H7           5.7680     7.9390    26.2200 hc         1 RPM       0.034700
     32 H8           7.2240     8.9180    26.0080 hc         1 RPM       0.034700
     33 H9           6.8190     7.6700    24.8180 hc         1 RPM       0.034700
     34 H10          5.9480     5.5020    26.8980 ha         1 RPM       0.099000
     35 H11          7.2590     3.8120    28.2020 ha         1 RPM       0.104000
     36 H12         12.1150     4.5080    29.3690 h4         1 RPM       0.211000
     37 H13         13.0660     6.7970    28.2670 hc         1 RPM       0.045200
     38 H14         12.1410     7.4390    26.9150 hc         1 RPM       0.045200
     39 H15         13.0420     9.7340    27.6440 h1         1 RPM       0.068200
     40 H16         13.7550     9.2030    29.1790 h1         1 RPM       0.068200
     41 H17         12.3330    12.0680    33.6600 h4         1 RPM       0.038100
     42 H18          7.5520    10.8030    28.1410 ha         1 RPM       0.102000
     43 H19          7.5160     7.4910    30.9090 ha         1 RPM       0.102000
     44 H20          9.7980     3.3360    29.2440 hn         1 RPM       0.342000
     45 C15         14.2040    12.0520    31.3570 c          1 RPM       0.741600
     46 O16         14.8040    11.8640    30.3090 o          1 RPM      -0.722500
     47 O17         14.6880    12.6830    32.2850 o          1 RPM      -0.722500
     48 C01          6.8130     7.9090    25.8880 c3         1 RPM      -0.036800
@<TRIPOS>BOND
     1     1    14 1   
     2     1    15 1   
     3     1    25 1   
     4     1    26 1   
     5     2    16 2   
     6     2    23 1   
     7     2    24 1   
     8     3     4 ar  
     9     3     6 ar  
    10     3    23 1   
    11     4    18 ar  
    12     4    27 1   
    13     5    18 ar  
    14     5    19 ar  
    15     5    28 1   
    16     6    19 ar  
    17     6    29 1   
    18     7     8 ar  
    19     7    20 ar  
    20     7    30 1   
    21     8     9 ar  
    22     8    48 1   
    23     9    10 ar  
    24     9    34 1   
    25    10    11 ar  
    26    10    35 1   
    27    11    20 ar  
    28    11    21 1   
    29    12    13 2   
    30    12    21 1   
    31    12    36 1   
    32    13    14 1   
    33    13    20 1   
    34    14    37 1   
    35    14    38 1   
    36    15    24 1   
    37    15    39 1   
    38    15    40 1   
    39    16    17 1   
    40    16    45 1   
    41    17    22 2   
    42    17    41 1   
    43    18    42 1   
    44    19    43 1   
    45    21    44 1   
    46    22    23 1   
    47    31    48 1   
    48    32    48 1   
    49    33    48 1   
    50    45    46 1   
    51    45    47 1   
@<TRIPOS>SUBSTRUCTURE
     1 RPM         1 TEMP              0 ****  ****    0 ROOT
