@<TRIPOS>MOLECULE
RPN
   23    23     1     0     0
SMALL
bcc


@<TRIPOS>ATOM
      1 C1          -2.3470    -0.6640    -0.7100 c3         1 RPN       0.126800
      2 C2          -1.6670    -0.3650     0.6310 c3         1 RPN       0.164400
      3 O3          -2.2810     0.7140     1.2800 oh         1 RPN      -0.580800
      4 C4          -0.1790    -0.1950     0.4190 ca         1 RPN      -0.074300
      5 N5          -3.7470    -1.0350    -0.5270 n2         1 RPN      -0.436200
      6 N6          -4.5410    -0.1310    -0.3400 n1         1 RPN       0.235000
      7 N7          -5.3640     0.6170    -0.1780 n1         1 RPN      -0.057000
      8 C8           0.5820    -1.3060     0.0580 ca         1 RPN      -0.135000
      9 C9           1.9400    -1.2000    -0.1700 ca         1 RPN      -0.059000
     10 C10          2.5440     0.0430    -0.0330 ca         1 RPN      -0.177200
     11 C11          1.8150     1.1630     0.3340 ca         1 RPN      -0.059000
     12 C12          0.4550     1.0340     0.5620 ca         1 RPN      -0.135000
     13 N13          3.9720     0.1720    -0.2720 no         1 RPN       0.314200
     14 O14          4.5910    -0.8250    -0.5630 o          1 RPN      -0.206000
     15 O15          4.4700     1.2680    -0.1680 o          1 RPN      -0.206000
     16 HC11        -2.2410     0.1920    -1.3860 h1         1 RPN       0.067700
     17 HC12        -1.8730    -1.5180    -1.1900 h1         1 RPN       0.067700
     18 HC2         -1.8170    -1.2290     1.2860 h1         1 RPN       0.106700
     19 H03         -2.2360     1.5000     0.7220 ho         1 RPN       0.403000
     20 HC8          0.1120    -2.2770    -0.0380 ha         1 RPN       0.147000
     21 HC9          2.5090    -2.0760    -0.4460 ha         1 RPN       0.172500
     22 H11          2.2870     2.1270     0.4490 ha         1 RPN       0.172500
     23 H12         -0.0960     1.9150     0.8620 ha         1 RPN       0.147000
@<TRIPOS>BOND
     1     1     2 1   
     2     1     5 1   
     3     1    16 1   
     4     1    17 1   
     5     2     3 1   
     6     2     4 1   
     7     2    18 1   
     8     3    19 1   
     9     4     8 ar  
    10     4    12 ar  
    11     5     6 1   
    12     6     7 3   
    13     8     9 ar  
    14     8    20 1   
    15     9    10 ar  
    16     9    21 1   
    17    10    11 ar  
    18    10    13 1   
    19    11    12 ar  
    20    11    22 1   
    21    12    23 1   
    22    13    14 1   
    23    13    15 1   
@<TRIPOS>SUBSTRUCTURE
     1 RPN         1 TEMP              0 ****  ****    0 ROOT
