@<TRIPOS>MOLECULE
RPN
   23    23     1     0     0
SMALL
No Charge or Current Charge


@<TRIPOS>ATOM
      1 C1          -2.5720    -0.0120    -0.3910 c3         1 RPN       0.126800
      2 C2          -1.6410    -0.6530     0.6800 c3         1 RPN       0.187600
      3 O3          -1.9610    -0.1670     1.9970 oh         1 RPN      -0.643000
      4 C4          -0.1560    -0.4070     0.3990 ca         1 RPN      -0.074300
      5 N5          -3.9690    -0.4480    -0.2230 n2         1 RPN      -0.436200
      6 N6          -4.8010     0.0770    -0.9800 n1         1 RPN       0.235000
      7 N7          -5.6600     0.4750    -1.6120 n1         1 RPN      -0.057000
      8 C8           0.7490    -1.4860     0.4280 ca         1 RPN      -0.117000
      9 C9           2.1170    -1.2860     0.1740 ca         1 RPN      -0.041000
     10 C10          2.6090     0.0090    -0.1120 ca         1 RPN      -0.177200
     11 C11          1.7030     1.0940    -0.1350 ca         1 RPN      -0.041000
     12 C12          0.3360     0.8860     0.1200 ca         1 RPN      -0.117000
     13 N13          4.0670     0.2280    -0.3830 no         1 RPN       0.694200
     14 O14          4.8220    -0.7530    -0.3510 o          1 RPN      -0.396000
     15 O15          4.4510     1.3790    -0.6270 o          1 RPN      -0.396000
     16 HC11        -2.4990     1.0820    -0.3280 h1         1 RPN       0.067700
     17 HC12        -2.2030    -0.3050    -1.3830 h1         1 RPN       0.067700
     18 HC2         -1.8160    -1.7370     0.6370 h1         1 RPN       0.106700
     19 H03         -1.5800     0.7350     2.0690 ho         1 RPN       0.442000
     20 HC8          0.3940    -2.4910     0.6480 ha         1 RPN       0.129000
     21 HC9          2.7880    -2.1430     0.2030 ha         1 RPN       0.154500
     22 H11          2.0490     2.1050    -0.3480 ha         1 RPN       0.154500
     23 H12         -0.3360     1.7410     0.1000 ha         1 RPN       0.129000
@<TRIPOS>BOND
     1     1     2 1   
     2     1     5 1   
     3     1    16 1   
     4     1    17 1   
     5     2     3 1   
     6     2     4 1   
     7     2    18 1   
     8     3    19 1   
     9     4     8 ar  
    10     4    12 ar  
    11     5     6 1   
    12     6     7 3   
    13     8     9 ar  
    14     8    20 1   
    15     9    10 ar  
    16     9    21 1   
    17    10    11 ar  
    18    10    13 1   
    19    11    12 ar  
    20    11    22 1   
    21    12    23 1   
    22    13    14 1   
    23    13    15 1   
@<TRIPOS>SUBSTRUCTURE
     1 RPN         1 TEMP              0 ****  ****    0 ROOT
