@<TRIPOS>MOLECULE
RPO
  100   104     1     0     0
SMALL
abcg2


@<TRIPOS>ATOM
      1 C1           2.1270    -0.6020     1.0110 c6         1 RPO       0.363300
      2 O1           1.9750    -1.2130    -0.2380 os         1 RPO      -0.474000
      3 C2           1.9660     0.9100     0.8600 c6         1 RPO       0.103500
      4 N2           0.7420     1.3640     0.2320 n8         1 RPO      -1.019200
      5 C3           3.1630     1.5260     0.1360 c6         1 RPO       0.168300
      6 O3           3.0140     2.9200     0.0690 oh         1 RPO      -0.719000
      7 C4           4.4230     1.1680     0.9020 c6         1 RPO       0.141300
      8 O4           5.5640     1.6490     0.2280 os         1 RPO      -0.449000
      9 C5           4.5170    -0.3590     1.0030 c6         1 RPO       0.164300
     10 O5           3.3570    -0.9040     1.6090 os         1 RPO      -0.459000
     11 C6           5.7150    -0.8470     1.7850 c3         1 RPO       0.164600
     12 O6           5.6810    -0.3280     3.0940 oh         1 RPO      -0.717000
     13 CAL          8.8500     4.0210    -1.4610 ca         1 RPO      -0.117000
     14 CAM          7.7020     3.8130    -0.7070 ca         1 RPO      -0.088500
     15 CAN          9.9450     3.1810    -1.3050 ca         1 RPO      -0.105000
     16 CAO          7.6360     2.7700     0.2120 ca         1 RPO      -0.086300
     17 CAP          9.8880     2.1350    -0.3930 ca         1 RPO      -0.117000
     18 CAU          6.3810     2.5140     0.9930 c3         1 RPO       0.209900
     19 CBC          8.7380     1.9330     0.3580 ca         1 RPO      -0.088500
     20 CBD          0.6490    -5.0920    -1.3560 c6         1 RPO       0.114500
     21 CAT          2.1370    -4.8330    -1.1690 c6         1 RPO      -0.113400
     22 CBE          2.4690    -3.3460    -1.2530 c6         1 RPO       0.165500
     23 CBT          1.6460    -2.5890    -0.2100 c6         1 RPO       0.176300
     24 CBW          0.1510    -2.8000    -0.4900 c6         1 RPO       0.158300
     25 CBI         -0.1670    -4.2830    -0.3470 c6         1 RPO       0.155300
     26 NAB          0.2320    -6.4810    -1.2470 n8         1 RPO      -1.014200
     27 NAC          3.8890    -3.1530    -1.0180 n8         1 RPO      -0.991200
     28 O7          -0.5890    -2.0110     0.4260 os         1 RPO      -0.459000
     29 OAH         -1.5370    -4.5200    -0.5420 oh         1 RPO      -0.720000
     30 C10         -2.7680     0.2520    -1.0950 c5         1 RPO       0.151300
     31 O9          -1.5840    -0.5240    -1.0130 os         1 RPO      -0.476000
     32 C7          -1.7910    -1.4960    -0.0110 c5         1 RPO       0.348300
     33 C8          -2.4650    -0.6980     1.1000 c5         1 RPO       0.133300
     34 O2          -3.1560    -1.4410     2.0530 oh         1 RPO      -0.687000
     35 C9          -3.4030     0.2280     0.3130 c5         1 RPO       0.148300
     36 O8          -4.7070    -0.3000     0.2620 os         1 RPO      -0.421000
     37 C11         -2.4450     1.6450    -1.5730 c3         1 RPO       0.164600
     38 O10         -1.8740     1.5700    -2.8550 oh         1 RPO      -0.705000
     39 CBM         -6.8560     2.5030     0.2180 c6         1 RPO       0.192300
     40 OAV         -5.9180     1.5380    -0.2200 os         1 RPO      -0.474000
     41 CBQ         -5.7070     0.5280     0.7320 c6         1 RPO       0.405300
     42 CBF         -6.9680    -0.2980     0.9610 c6         1 RPO       0.155500
     43 NAD         -7.3210    -1.0430    -0.2310 n8         1 RPO      -0.976200
     44 CBH         -8.1090     0.6480     1.3530 c6         1 RPO       0.131300
     45 OAG         -7.8470     1.0650     2.6750 oh         1 RPO      -0.659000
     46 CBJ         -8.2260     1.8690     0.4200 c6         1 RPO       0.121300
     47 OAI         -8.7750     1.5460    -0.8290 oh         1 RPO      -0.682000
     48 CAQ         -6.8500     3.6490    -0.7760 c3         1 RPO       0.156800
     49 NAA         -5.5810     4.3620    -0.7240 n8         1 RPO      -1.002200
     50 H1           1.3770    -0.9780     1.7140 h2         1 RPO       0.078700
     51 H2           1.9700     1.3110     1.8800 h1         1 RPO       0.071700
     52 HN2          0.4970     0.7760    -0.5550 hn         1 RPO       0.419500
     53 HN2A        -0.0270     1.3020     0.8850 hn         1 RPO       0.419500
     54 H3           3.2360     1.0970    -0.8770 h1         1 RPO       0.055700
     55 HO3          2.0690     3.0590    -0.0960 ho         1 RPO       0.527000
     56 H4           4.3460     1.5990     1.9090 h1         1 RPO       0.069700
     57 H5           4.6480    -0.7460    -0.0150 h1         1 RPO       0.053700
     58 H6           5.7020    -1.9450     1.7810 h1         1 RPO       0.034700
     59 H6A          6.6190    -0.5410     1.2450 h1         1 RPO       0.034700
     60 HO6          6.4760    -0.6160     3.5500 ho         1 RPO       0.499000
     61 HAM          6.8510     4.4730    -0.8320 ha         1 RPO       0.113000
     62 HAN         10.8420     3.3430    -1.8900 ha         1 RPO       0.110000
     63 HAP         10.7400     1.4800    -0.2630 ha         1 RPO       0.111000
     64 HAU          5.8610     3.4570     1.2000 h1         1 RPO       0.037200
     65 HAUA         6.6300     2.0580     1.9580 h1         1 RPO       0.037200
     66 HBC          8.7010     1.1180     1.0720 ha         1 RPO       0.113000
     67 HBD          0.3590    -4.7510    -2.3580 h1         1 RPO       0.070700
     68 HATA         2.7000    -5.3770    -1.9330 hc         1 RPO       0.052700
     69 HBE          2.1570    -2.9860    -2.2480 h1         1 RPO       0.031700
     70 HBT          1.8900    -3.0110     0.7750 h1         1 RPO       0.068700
     71 HBW         -0.0620    -2.4820    -1.5190 h1         1 RPO       0.075700
     72 HBI          0.1360    -4.5990     0.6680 h1         1 RPO       0.038700
     73 HNAC         0.5340    -7.0070    -2.0570 hn         1 RPO       0.406000
     74 HNAD         0.6700    -6.9160    -0.4420 hn         1 RPO       0.406000
     75 HNAE         4.4070    -3.7310    -1.6700 hn         1 RPO       0.401000
     76 HNAF         4.1390    -2.2020    -1.2520 hn         1 RPO       0.401000
     77 HOAH        -1.5900    -5.4630    -0.7660 ho         1 RPO       0.533000
     78 H10         -3.4740    -0.2170    -1.7940 h1         1 RPO       0.086700
     79 H7          -2.4580    -2.2850    -0.3870 h2         1 RPO       0.081700
     80 H8          -1.6820    -0.0740     1.5590 h1         1 RPO       0.038700
     81 HO2         -2.5100    -1.8840     2.6130 ho         1 RPO       0.515000
     82 H9          -3.4180     1.2280     0.7610 h1         1 RPO       0.064700
     83 H11         -3.3850     2.2130    -1.5760 h1         1 RPO       0.028700
     84 H5'A        -1.7750     2.1370    -0.8540 h1         1 RPO       0.028700
     85 HO5         -1.6650     2.4620    -3.1440 ho         1 RPO       0.503000
     86 HBM         -6.5430     2.9080     1.1930 h1         1 RPO       0.052700
     87 HBQ         -5.4100     0.9930     1.6880 h2         1 RPO       0.038700
     88 HBF         -6.7760    -0.9470     1.8310 h1         1 RPO       0.051700
     89 HNAG        -6.6330    -1.7680    -0.3900 hn         1 RPO       0.402000
     90 HNAH        -8.1960    -1.5270    -0.0740 hn         1 RPO       0.402000
     91 HBH         -9.0570     0.0860     1.3120 h1         1 RPO       0.032700
     92 HOAG        -8.5260     1.6950     2.9380 ho         1 RPO       0.448000
     93 HBJ         -8.8530     2.6150     0.9380 h1         1 RPO       0.021700
     94 HOAI        -9.5680     1.0190    -0.6890 ho         1 RPO       0.500000
     95 HAQ         -7.1040     3.2720    -1.7740 h1         1 RPO       0.048700
     96 HAQA        -7.6440     4.3440    -0.4910 h1         1 RPO       0.048700
     97 HNAA        -4.8490     3.7690    -1.0920 hn         1 RPO       0.395500
     98 HNAB        -5.6230     5.1570    -1.3490 hn         1 RPO       0.395500
     99 HAT          2.4620    -5.2210    -0.1960 hc         1 RPO       0.052700
    100 HAL          8.8890     4.8380    -2.1690 ha         1 RPO       0.111000
@<TRIPOS>BOND
     1     1     2 1   
     2     1     3 1   
     3     1    10 1   
     4     1    50 1   
     5     2    23 1   
     6     3     4 1   
     7     3     5 1   
     8     3    51 1   
     9     4    52 1   
    10     4    53 1   
    11     5     6 1   
    12     5     7 1   
    13     5    54 1   
    14     6    55 1   
    15     7     8 1   
    16     7     9 1   
    17     7    56 1   
    18     8    18 1   
    19     9    10 1   
    20     9    11 1   
    21     9    57 1   
    22    11    12 1   
    23    11    58 1   
    24    11    59 1   
    25    12    60 1   
    26    13    14 ar  
    27    13    15 ar  
    28    13   100 1   
    29    14    16 ar  
    30    14    61 1   
    31    15    17 ar  
    32    15    62 1   
    33    16    18 1   
    34    16    19 ar  
    35    17    19 ar  
    36    17    63 1   
    37    18    64 1   
    38    18    65 1   
    39    19    66 1   
    40    20    21 1   
    41    20    25 1   
    42    20    26 1   
    43    20    67 1   
    44    21    22 1   
    45    21    68 1   
    46    21    99 1   
    47    22    23 1   
    48    22    27 1   
    49    22    69 1   
    50    23    24 1   
    51    23    70 1   
    52    24    25 1   
    53    24    28 1   
    54    24    71 1   
    55    25    29 1   
    56    25    72 1   
    57    26    73 1   
    58    26    74 1   
    59    27    75 1   
    60    27    76 1   
    61    28    32 1   
    62    29    77 1   
    63    30    31 1   
    64    30    35 1   
    65    30    37 1   
    66    30    78 1   
    67    31    32 1   
    68    32    33 1   
    69    32    79 1   
    70    33    34 1   
    71    33    35 1   
    72    33    80 1   
    73    34    81 1   
    74    35    36 1   
    75    35    82 1   
    76    36    41 1   
    77    37    38 1   
    78    37    83 1   
    79    37    84 1   
    80    38    85 1   
    81    39    40 1   
    82    39    46 1   
    83    39    48 1   
    84    39    86 1   
    85    40    41 1   
    86    41    42 1   
    87    41    87 1   
    88    42    43 1   
    89    42    44 1   
    90    42    88 1   
    91    43    89 1   
    92    43    90 1   
    93    44    45 1   
    94    44    46 1   
    95    44    91 1   
    96    45    92 1   
    97    46    47 1   
    98    46    93 1   
    99    47    94 1   
   100    48    49 1   
   101    48    95 1   
   102    48    96 1   
   103    49    97 1   
   104    49    98 1   
@<TRIPOS>SUBSTRUCTURE
     1 RPO         1 TEMP              0 ****  ****    0 ROOT
