@<TRIPOS>MOLECULE
RPO
  100   104     1     0     0
SMALL
No Charge or Current Charge


@<TRIPOS>ATOM
      1 C1           2.3510    -0.2190     0.9350 c6         1 RPO       0.363300
      2 O1           2.2900    -1.2880    -0.0360 os         1 RPO      -0.474000
      3 C2           2.2250     1.1860     0.2530 c6         1 RPO       0.103500
      4 N2           0.9860     1.4190    -0.5720 n8         1 RPO      -1.019200
      5 C3           3.4670     1.4410    -0.6310 c6         1 RPO       0.168300
      6 O3           3.2500     2.7060    -1.2690 oh         1 RPO      -0.719000
      7 C4           4.7730     1.3440     0.2110 c6         1 RPO       0.141300
      8 O4           5.9350     1.5920    -0.6270 os         1 RPO      -0.449000
      9 C5           4.8060    -0.0730     0.8800 c6         1 RPO       0.164300
     10 O5           3.5970    -0.3030     1.6620 os         1 RPO      -0.459000
     11 C6           6.0280    -0.3020     1.8290 c3         1 RPO       0.164600
     12 O6           6.0610     0.5930     2.9610 oh         1 RPO      -0.717000
     13 CAL          9.2200     3.5090    -2.9720 ca         1 RPO      -0.117000
     14 CAM          8.1670     3.4440    -2.0420 ca         1 RPO      -0.088500
     15 CAN         10.2570     2.5610    -2.9280 ca         1 RPO      -0.105000
     16 CAO          8.1460     2.4310    -1.0620 ca         1 RPO      -0.086300
     17 CAP         10.2400     1.5480    -1.9550 ca         1 RPO      -0.117000
     18 CAU          7.0070     2.3630    -0.0540 c3         1 RPO       0.209900
     19 CBC          9.1870     1.4830    -1.0250 ca         1 RPO      -0.088500
     20 CBD         -0.1300    -4.8240    -0.3570 c6         1 RPO       0.114500
     21 CAT          1.3800    -5.0330    -0.1370 c6         1 RPO      -0.113400
     22 CBE          2.1310    -3.7120    -0.4470 c6         1 RPO       0.165500
     23 CBT          1.5910    -2.4930     0.3900 c6         1 RPO       0.176300
     24 CBW          0.0320    -2.3430     0.2380 c6         1 RPO       0.158300
     25 CBI         -0.6590    -3.7060     0.5700 c6         1 RPO       0.155300
     26 NAB         -0.9330    -6.0580    -0.1450 n8         1 RPO      -1.014200
     27 NAC          3.5860    -3.9080    -0.2560 n8         1 RPO      -0.991200
     28 O7          -0.4590    -1.2460     1.0550 os         1 RPO      -0.459000
     29 OAH         -2.0770    -3.7430     0.4060 oh         1 RPO      -0.720000
     30 C10         -2.9830     1.2540     0.9890 c5         1 RPO       0.151300
     31 O9          -1.6520     0.7070     0.7660 os         1 RPO      -0.476000
     32 C7          -1.7750    -0.7220     0.7880 c5         1 RPO       0.348300
     33 C8          -2.6790    -0.9230     2.0450 c5         1 RPO       0.133300
     34 O2          -3.1570    -2.2580     2.3000 oh         1 RPO      -0.687000
     35 C9          -3.8020     0.1010     1.6860 c5         1 RPO       0.148300
     36 O8          -4.6850    -0.4950     0.6900 os         1 RPO      -0.421000
     37 C11         -2.8890     2.5500     1.8400 c3         1 RPO       0.164600
     38 O10         -2.3800     3.6540     1.0690 oh         1 RPO      -0.705000
     39 CBM         -7.0920     2.1320    -0.2130 c6         1 RPO       0.192300
     40 OAV         -5.8350     1.4220    -0.0550 os         1 RPO      -0.474000
     41 CBQ         -5.9870     0.1080     0.5270 c6         1 RPO       0.405300
     42 CBF         -6.8910    -0.7940    -0.3980 c6         1 RPO       0.155500
     43 NAD         -6.2400    -1.1160    -1.7220 n8         1 RPO      -0.976200
     44 CBH         -8.2730    -0.0870    -0.6070 c6         1 RPO       0.131300
     45 OAG         -9.0070    -0.0330     0.6310 oh         1 RPO      -0.659000
     46 CBJ         -8.0340     1.3450    -1.1890 c6         1 RPO       0.121300
     47 OAI         -7.4320     1.2030    -2.4870 oh         1 RPO      -0.682000
     48 CAQ         -6.7730     3.5780    -0.7210 c3         1 RPO       0.156800
     49 NAA         -5.9310     4.3970     0.1950 n8         1 RPO      -1.002200
     50 H1           1.5320    -0.3110     1.6610 h2         1 RPO       0.078700
     51 H2           2.2180     1.9380     1.0580 h1         1 RPO       0.071700
     52 HN2          0.8750     0.6150    -1.2030 hn         1 RPO       0.419500
     53 HN2A         0.1550     1.3130     0.0360 hn         1 RPO       0.419500
     54 H3           3.5060     0.6540    -1.3990 h1         1 RPO       0.055700
     55 HO3          2.2540     2.7160    -1.2870 ho         1 RPO       0.527000
     56 H4           4.7300     2.1110     0.9990 h1         1 RPO       0.069700
     57 H5           4.8590    -0.8340     0.0880 h1         1 RPO       0.053700
     58 H6           5.9780    -1.3420     2.1810 h1         1 RPO       0.034700
     59 H6A          6.9510    -0.2160     1.2420 h1         1 RPO       0.034700
     60 HO6          6.7440     0.2480     3.5820 ho         1 RPO       0.499000
     61 HAM          7.3660     4.1790    -2.0840 ha         1 RPO       0.113000
     62 HAN         11.0710     2.6120    -3.6480 ha         1 RPO       0.110000
     63 HAP         11.0410     0.8130    -1.9210 ha         1 RPO       0.111000
     64 HAU          6.6650     3.3790     0.1810 h1         1 RPO       0.037200
     65 HAUA         7.3730     1.9140     0.8770 h1         1 RPO       0.037200
     66 HBC          9.1800     0.6940    -0.2750 ha         1 RPO       0.113000
     67 HBD         -0.2930    -4.5100    -1.4010 h1         1 RPO       0.070700
     68 HATA         1.7460    -5.8350    -0.7930 hc         1 RPO       0.052700
     69 HBE          1.9840    -3.4700    -1.5110 h1         1 RPO       0.031700
     70 HBT          1.8250    -2.6830     1.4480 h1         1 RPO       0.068700
     71 HBW         -0.1720    -2.1000    -0.8150 h1         1 RPO       0.075700
     72 HBI         -0.4110    -3.9700     1.6090 h1         1 RPO       0.038700
     73 HNAC        -0.6920    -6.7410    -0.8770 hn         1 RPO       0.406000
     74 HNAD        -0.6090    -6.5250     0.7120 hn         1 RPO       0.406000
     75 HNAE         3.9600    -4.4230    -1.0620 hn         1 RPO       0.401000
     76 HNAF         4.0290    -2.9860    -0.3300 hn         1 RPO       0.401000
     77 HOAH        -2.1740    -4.6950     0.1110 ho         1 RPO       0.533000
     78 H10         -3.4140     1.5090     0.0130 h1         1 RPO       0.086700
     79 H7          -2.2170    -1.1080    -0.1420 h2         1 RPO       0.081700
     80 H8          -2.1370    -0.5660     2.9330 h1         1 RPO       0.038700
     81 HO2         -2.7670    -2.8310     1.5760 ho         1 RPO       0.515000
     82 H9          -4.3750     0.4250     2.5650 h1         1 RPO       0.064700
     83 H11         -3.8920     2.7940     2.2160 h1         1 RPO       0.028700
     84 H5'A        -2.2480     2.3570     2.7110 h1         1 RPO       0.028700
     85 HO5         -2.1790     4.3810     1.7030 ho         1 RPO       0.503000
     86 HBM         -7.5770     2.2210     0.7700 h1         1 RPO       0.052700
     87 HBQ         -6.4660     0.1990     1.5140 h2         1 RPO       0.038700
     88 HBF         -7.0500    -1.7500     0.1230 h1         1 RPO       0.051700
     89 HNAG        -5.2400    -1.2720    -1.5360 hn         1 RPO       0.402000
     90 HNAH        -6.5610    -2.0450    -2.0270 hn         1 RPO       0.402000
     91 HBH         -8.8530    -0.6710    -1.3360 h1         1 RPO       0.032700
     92 HOAG        -9.9520     0.1110     0.4010 ho         1 RPO       0.448000
     93 HBJ         -8.9940     1.8740    -1.2750 h1         1 RPO       0.021700
     94 HOAI        -6.8560     0.3890    -2.3790 ho         1 RPO       0.500000
     95 HAQ         -6.2590     3.5030    -1.6890 h1         1 RPO       0.048700
     96 HAQA        -7.7230     4.1070    -0.8870 h1         1 RPO       0.048700
     97 HNAA        -5.0350     3.9110     0.3230 hn         1 RPO       0.395500
     98 HNAB        -5.6670     5.2680    -0.2810 hn         1 RPO       0.395500
     99 HAT          1.5760    -5.3490     0.8980 hc         1 RPO       0.052700
    100 HAL          9.2310     4.2930    -3.7260 ha         1 RPO       0.111000
@<TRIPOS>BOND
     1     1     2 1   
     2     1     3 1   
     3     1    10 1   
     4     1    50 1   
     5     2    23 1   
     6     3     4 1   
     7     3     5 1   
     8     3    51 1   
     9     4    52 1   
    10     4    53 1   
    11     5     6 1   
    12     5     7 1   
    13     5    54 1   
    14     6    55 1   
    15     7     8 1   
    16     7     9 1   
    17     7    56 1   
    18     8    18 1   
    19     9    10 1   
    20     9    11 1   
    21     9    57 1   
    22    11    12 1   
    23    11    58 1   
    24    11    59 1   
    25    12    60 1   
    26    13    14 ar  
    27    13    15 ar  
    28    13   100 1   
    29    14    16 ar  
    30    14    61 1   
    31    15    17 ar  
    32    15    62 1   
    33    16    18 1   
    34    16    19 ar  
    35    17    19 ar  
    36    17    63 1   
    37    18    64 1   
    38    18    65 1   
    39    19    66 1   
    40    20    21 1   
    41    20    25 1   
    42    20    26 1   
    43    20    67 1   
    44    21    22 1   
    45    21    68 1   
    46    21    99 1   
    47    22    23 1   
    48    22    27 1   
    49    22    69 1   
    50    23    24 1   
    51    23    70 1   
    52    24    25 1   
    53    24    28 1   
    54    24    71 1   
    55    25    29 1   
    56    25    72 1   
    57    26    73 1   
    58    26    74 1   
    59    27    75 1   
    60    27    76 1   
    61    28    32 1   
    62    29    77 1   
    63    30    31 1   
    64    30    35 1   
    65    30    37 1   
    66    30    78 1   
    67    31    32 1   
    68    32    33 1   
    69    32    79 1   
    70    33    34 1   
    71    33    35 1   
    72    33    80 1   
    73    34    81 1   
    74    35    36 1   
    75    35    82 1   
    76    36    41 1   
    77    37    38 1   
    78    37    83 1   
    79    37    84 1   
    80    38    85 1   
    81    39    40 1   
    82    39    46 1   
    83    39    48 1   
    84    39    86 1   
    85    40    41 1   
    86    41    42 1   
    87    41    87 1   
    88    42    43 1   
    89    42    44 1   
    90    42    88 1   
    91    43    89 1   
    92    43    90 1   
    93    44    45 1   
    94    44    46 1   
    95    44    91 1   
    96    45    92 1   
    97    46    47 1   
    98    46    93 1   
    99    47    94 1   
   100    48    49 1   
   101    48    95 1   
   102    48    96 1   
   103    49    97 1   
   104    49    98 1   
@<TRIPOS>SUBSTRUCTURE
     1 RPO         1 TEMP              0 ****  ****    0 ROOT
