@<TRIPOS>MOLECULE
RPQ
   23    24     1     0     0
SMALL
No Charge or Current Charge


@<TRIPOS>ATOM
      1 O3           2.7330     1.2080     0.4170 oh         1 RPQ      -0.642000
      2 C3           1.4560     0.5890     0.6450 c6         1 RPQ       0.135300
      3 C4           1.3430    -0.7380    -0.1710 c6         1 RPQ       0.161300
      4 O4           2.4760    -1.5720     0.1360 oh         1 RPQ      -0.716000
      5 C2           0.3250     1.5900     0.2580 c6         1 RPQ       0.125000
      6 O2           0.6330     2.1980    -1.0230 oh         1 RPQ      -0.691000
      7 C1          -1.0050     0.8490     0.2340 cc         1 RPQ       0.332800
      8 N20         -2.2240     1.3500     0.2590 nd         1 RPQ      -0.381000
      9 N2          -3.0850     0.2810     0.2100 nd         1 RPQ      -0.045000
     10 N1          -2.4450    -0.8550     0.1540 nc         1 RPQ      -0.198800
     11 N5          -1.1310    -0.5150     0.1510 na         1 RPQ      -0.064700
     12 C5          -0.0010    -1.4800     0.1340 c6         1 RPQ       0.101300
     13 C6          -0.2330    -2.6710    -0.8410 c3         1 RPQ      -0.096100
     14 H1           2.5550     1.8630    -0.3020 ho         1 RPQ       0.457000
     15 H2           1.3470     0.3440     1.7130 h1         1 RPQ       0.052700
     16 H3           1.3520    -0.4760    -1.2410 h1         1 RPQ       0.076700
     17 H4           3.2190    -0.9360     0.2850 ho         1 RPQ       0.533000
     18 H5           0.2800     2.3660     1.0370 h1         1 RPQ       0.067700
     19 H6          -0.1120     2.8090    -1.2440 ho         1 RPQ       0.523000
     20 H7           0.0710    -1.8990     1.1480 h1         1 RPQ       0.085700
     21 H8           0.6060    -3.3760    -0.8150 hc         1 RPQ       0.061367
     22 H9          -1.1360    -3.2330    -0.5760 hc         1 RPQ       0.061367
     23 H10         -0.3460    -2.3230    -1.8750 hc         1 RPQ       0.061367
@<TRIPOS>BOND
     1     1     2 1   
     2     1    14 1   
     3     2     3 1   
     4     2     5 1   
     5     2    15 1   
     6     3     4 1   
     7     3    12 1   
     8     3    16 1   
     9     4    17 1   
    10     5     6 1   
    11     5     7 1   
    12     5    18 1   
    13     6    19 1   
    14     7     8 2   
    15     7    11 1   
    16     8     9 1   
    17     9    10 2   
    18    10    11 1   
    19    11    12 1   
    20    12    13 1   
    21    12    20 1   
    22    13    21 1   
    23    13    22 1   
    24    13    23 1   
@<TRIPOS>SUBSTRUCTURE
     1 RPQ         1 TEMP              0 ****  ****    0 ROOT
