@<TRIPOS>MOLECULE
RPQ
   23    24     1     0     0
SMALL
bcc


@<TRIPOS>ATOM
      1 O3           2.6570     1.2060     0.2570 oh         1 RPQ      -0.579800
      2 C3           1.3950     0.6610     0.5210 c6         1 RPQ       0.112100
      3 C4           1.3210    -0.6890    -0.2000 c6         1 RPQ       0.138100
      4 O4           2.3810    -1.5260     0.1720 oh         1 RPQ      -0.593800
      5 C2           0.2680     1.5850     0.0520 c6         1 RPQ       0.101800
      6 O2           0.4970     1.9470    -1.2840 oh         1 RPQ      -0.568800
      7 C1          -1.0130     0.8270     0.1780 cc         1 RPQ       0.332800
      8 N20         -2.2400     1.2800     0.2570 nd         1 RPQ      -0.381000
      9 N2          -3.0240     0.2050     0.2950 nd         1 RPQ      -0.045000
     10 N1          -2.3360    -0.8700     0.2470 nc         1 RPQ      -0.198800
     11 N5          -1.0690    -0.5040     0.1660 na         1 RPQ      -0.035400
     12 C5           0.0430    -1.4520     0.1670 c6         1 RPQ       0.072000
     13 C6          -0.2330    -2.6160    -0.7680 c3         1 RPQ      -0.096100
     14 H1           2.8790     1.8360     0.9500 ho         1 RPQ       0.418000
     15 H2           1.2520     0.4860     1.5970 h1         1 RPQ       0.052700
     16 H3           1.3200    -0.5100    -1.2860 h1         1 RPQ       0.076700
     17 H4           3.2040    -1.0600    -0.0090 ho         1 RPQ       0.434000
     18 H5           0.2180     2.4620     0.7080 h1         1 RPQ       0.067700
     19 H6          -0.1110     2.6550    -1.5200 ho         1 RPQ       0.424000
     20 H7           0.1460    -1.8140     1.1940 h1         1 RPQ       0.085700
     21 H8           0.6110    -3.3010    -0.7460 hc         1 RPQ       0.061367
     22 H9          -1.1190    -3.1680    -0.4640 hc         1 RPQ       0.061367
     23 H10         -0.3690    -2.2670    -1.7920 hc         1 RPQ       0.061367
@<TRIPOS>BOND
     1     1     2 1   
     2     1    14 1   
     3     2     3 1   
     4     2     5 1   
     5     2    15 1   
     6     3     4 1   
     7     3    12 1   
     8     3    16 1   
     9     4    17 1   
    10     5     6 1   
    11     5     7 1   
    12     5    18 1   
    13     6    19 1   
    14     7     8 2   
    15     7    11 1   
    16     8     9 1   
    17     9    10 2   
    18    10    11 1   
    19    11    12 1   
    20    12    13 1   
    21    12    20 1   
    22    13    21 1   
    23    13    22 1   
    24    13    23 1   
@<TRIPOS>SUBSTRUCTURE
     1 RPQ         1 TEMP              0 ****  ****    0 ROOT
