@<TRIPOS>MOLECULE
RPR
   64    66     1     0     0
SMALL
bcc


@<TRIPOS>ATOM
      1 C1          -1.4150    -0.1400     5.8340 ca         1 RPR      -0.093000
      2 C2          -0.0250    -0.1580     5.7080 cp         1 RPR      -0.045000
      3 C3           0.7560    -0.0520     6.8590 ca         1 RPR      -0.115000
      4 C4           0.1540     0.0740     8.1010 ca         1 RPR      -0.131000
      5 C5          -1.2290     0.0920     8.2100 ca         1 RPR      -0.125000
      6 C6          -2.0290    -0.0210     7.0750 ca         1 RPR      -0.088300
      7 C7           2.3900    -1.1110     2.9690 ca         1 RPR      -0.091500
      8 C8           1.8260    -0.4960     1.8540 ca         1 RPR      -0.150600
      9 C9           0.6340     0.2080     2.0100 ca         1 RPR      -0.091500
     10 C10          0.0340     0.3110     3.2540 ca         1 RPR      -0.129500
     11 C11          0.6070    -0.2810     4.3790 cp         1 RPR      -0.010000
     12 C12          1.7960    -0.9960     4.2130 ca         1 RPR      -0.129500
     13 N14          2.3020     0.3540    -0.3370 ns         1 RPR      -0.582900
     14 C15          2.7500     0.3620    -1.7180 c3         1 RPR       0.119700
     15 C16          3.8750     1.3690    -1.9100 c3         1 RPR      -0.108100
     16 C17          1.5310     0.6460    -2.6080 c3         1 RPR      -0.135700
     17 C18          0.4270    -0.3270    -2.2500 c          1 RPR       0.641100
     18 O19         -0.7220     0.2750    -1.9980 os         1 RPR      -0.419900
     19 C20          1.8330     0.5060    -4.1120 c3         1 RPR      -0.020100
     20 C21         -3.5320    -0.0540     7.2110 c3         1 RPR       0.197100
     21 N22         -4.2060     0.4490     6.0290 n8         1 RPR      -0.890800
     22 C23         -0.3010    -0.1910    -5.2500 ca         1 RPR      -0.078000
     23 C24         -1.4790     0.0920    -5.9360 ca         1 RPR      -0.144900
     24 C25         -1.7300     1.4000    -6.3430 ca         1 RPR      -0.108000
     25 C26         -0.8130     2.4020    -6.0580 ca         1 RPR      -0.137000
     26 C27          0.3490     2.1100    -5.3610 ca         1 RPR      -0.107000
     27 C28          0.6160     0.8070    -4.9450 ca         1 RPR      -0.097300
     28 N30         -3.2680    -0.8270    -7.2670 nv         1 RPR      -0.967800
     29 N31         -2.4910    -1.9870    -5.3680 n2         1 RPR      -0.827100
     30 O32          0.5760    -1.5240    -2.2300 o          1 RPR      -0.522000
     31 C34         -1.8710    -0.5580    -1.8190 c3         1 RPR       0.120700
     32 H11         -2.0390    -0.2330     4.9550 ha         1 RPR       0.153000
     33 H31          1.8370    -0.0380     6.7840 ha         1 RPR       0.133000
     34 H41          0.7680     0.1730     8.9870 ha         1 RPR       0.131000
     35 H51         -1.6900     0.2020     9.1840 ha         1 RPR       0.127000
     36 H71          3.3020    -1.6840     2.8650 ha         1 RPR       0.143000
     37 H91          0.1460     0.6700     1.1600 ha         1 RPR       0.143000
     38 H101        -0.8860     0.8750     3.3470 ha         1 RPR       0.137000
     39 H121         2.2530    -1.4890     5.0610 ha         1 RPR       0.137000
     40 H141         1.8940     1.2090     0.0090 hn         1 RPR       0.312500
     41 H151         3.1230    -0.6380    -1.9410 h1         1 RPR       0.101700
     42 H161         3.5380     2.3850    -1.6900 hc         1 RPR       0.043367
     43 H162         4.7050     1.1340    -1.2440 hc         1 RPR       0.043367
     44 H163         4.2580     1.3530    -2.9290 hc         1 RPR       0.043367
     45 H171         1.1840     1.6680    -2.4180 hc         1 RPR       0.072700
     46 H201         2.6380     1.1930    -4.3760 hc         1 RPR       0.061700
     47 H202         2.1960    -0.5050    -4.3130 hc         1 RPR       0.061700
     48 H211        -3.8390    -1.0950     7.3550 h1         1 RPR       0.035700
     49 H212        -3.8080     0.4670     8.1380 h1         1 RPR       0.035700
     50 H221        -5.2000     0.2850     6.1150 hn         1 RPR       0.342300
     51 H222        -4.0890     1.4530     5.9740 hn         1 RPR       0.342300
     52 H231        -0.1080    -1.2130    -4.9500 ha         1 RPR       0.163000
     53 H251        -2.6450     1.6530    -6.8620 ha         1 RPR       0.135000
     54 H261        -1.0120     3.4180    -6.3740 ha         1 RPR       0.132000
     55 H271         1.0560     2.9010    -5.1370 ha         1 RPR       0.129000
     56 H301        -3.8420    -1.6040    -7.5510 hn         1 RPR       0.406300
     57 H302        -2.9310    -0.2700    -8.0360 hn         1 RPR       0.406300
     58 H311        -3.1720    -2.6830    -5.6610 hn         1 RPR       0.371400
     59 H341        -2.6990     0.1160    -1.6220 h1         1 RPR       0.054700
     60 H342        -2.0750    -1.1320    -2.7250 h1         1 RPR       0.054700
     61 H343        -1.7480    -1.2360    -0.9740 h1         1 RPR       0.054700
     62 C13          2.4890    -0.6620     0.5260 c          1 RPR       0.688700
     63 C29         -2.4510    -1.0070    -6.1880 ce         1 RPR       0.659800
     64 O33          3.1450    -1.6600     0.2670 o          1 RPR      -0.587100
@<TRIPOS>BOND
     1     1     2 ar  
     2     1     6 ar  
     3     1    32 1   
     4     2     3 ar  
     5     2    11 1   
     6     3     4 ar  
     7     3    33 1   
     8     4     5 ar  
     9     4    34 1   
    10     5     6 ar  
    11     5    35 1   
    12     6    20 1   
    13     7     8 ar  
    14     7    12 ar  
    15     7    36 1   
    16     8     9 ar  
    17     8    62 1   
    18     9    10 ar  
    19     9    37 1   
    20    10    11 ar  
    21    10    38 1   
    22    11    12 ar  
    23    12    39 1   
    24    13    14 1   
    25    13    40 1   
    26    13    62 1   
    27    14    15 1   
    28    14    16 1   
    29    14    41 1   
    30    15    42 1   
    31    15    43 1   
    32    15    44 1   
    33    16    17 1   
    34    16    19 1   
    35    16    45 1   
    36    17    18 1   
    37    17    30 2   
    38    18    31 1   
    39    19    27 1   
    40    19    46 1   
    41    19    47 1   
    42    20    21 1   
    43    20    48 1   
    44    20    49 1   
    45    21    50 1   
    46    21    51 1   
    47    22    23 ar  
    48    22    27 ar  
    49    22    52 1   
    50    23    24 ar  
    51    23    63 1   
    52    24    25 ar  
    53    24    53 1   
    54    25    26 ar  
    55    25    54 1   
    56    26    27 ar  
    57    26    55 1   
    58    28    56 1   
    59    28    57 1   
    60    28    63 1   
    61    29    58 1   
    62    29    63 2   
    63    31    59 1   
    64    31    60 1   
    65    31    61 1   
    66    62    64 2   
@<TRIPOS>SUBSTRUCTURE
     1 RPR         1 TEMP              0 ****  ****    0 ROOT
