@<TRIPOS>MOLECULE
RPR
   64    66     1     0     0
SMALL
No Charge or Current Charge


@<TRIPOS>ATOM
      1 C1          -1.3650    -0.0200     6.1120 ca         1 RPR      -0.075000
      2 C2           0.0280    -0.2360     5.9510 cp         1 RPR      -0.045000
      3 C3           0.8130    -0.3880     7.1220 ca         1 RPR      -0.097000
      4 C4           0.2300    -0.3250     8.3990 ca         1 RPR      -0.113000
      5 C5          -1.1500    -0.1100     8.5330 ca         1 RPR      -0.107000
      6 C6          -1.9570     0.0430     7.3900 ca         1 RPR      -0.088300
      7 C7           2.3140    -1.2380     3.0420 ca         1 RPR      -0.073500
      8 C8           1.8380    -0.4310     1.9850 ca         1 RPR      -0.150600
      9 C9           0.7550     0.4430     2.2460 ca         1 RPR      -0.073500
     10 C10          0.1750     0.5020     3.5260 ca         1 RPR      -0.111500
     11 C11          0.6490    -0.3030     4.5890 cp         1 RPR      -0.010000
     12 C12          1.7310    -1.1740     4.3180 ca         1 RPR      -0.111500
     13 N14          2.0080     0.3210    -0.3540 ns         1 RPR      -0.515900
     14 C15          2.4790     0.3660    -1.7410 c3         1 RPR       0.119700
     15 C16          3.5960     1.4250    -1.8650 c3         1 RPR      -0.108100
     16 C17          1.2840     0.5910    -2.7080 c3         1 RPR      -0.135700
     17 C18          0.1530    -0.4050    -2.3930 c          1 RPR       0.592100
     18 O19         -0.9580     0.2250    -1.8910 os         1 RPR      -0.443100
     19 C20          1.6620     0.5190    -4.2130 c3         1 RPR      -0.020100
     20 C21         -3.4570     0.2640     7.5290 c3         1 RPR       0.197100
     21 N22         -3.8040     1.6940     7.4370 n8         1 RPR      -1.001200
     22 C23         -0.1540    -0.3150    -5.7940 ca         1 RPR      -0.060000
     23 C24         -1.2690    -0.1070    -6.6400 ca         1 RPR      -0.144900
     24 C25         -1.7780     1.2080    -6.7700 ca         1 RPR      -0.090000
     25 C26         -1.1660     2.2810    -6.1020 ca         1 RPR      -0.119000
     26 C27         -0.0480     2.0610    -5.2830 ca         1 RPR      -0.089000
     27 C28          0.4610     0.7600    -5.1220 ca         1 RPR      -0.097300
     28 N30         -2.6880    -1.0300    -8.4100 nv         1 RPR      -1.078200
     29 N31         -1.7260    -2.4800    -6.9870 n2         1 RPR      -0.827100
     30 O32          0.2440    -1.6140    -2.5600 o          1 RPR      -0.473000
     31 C34         -2.0980    -0.5850    -1.5530 c3         1 RPR       0.143900
     32 H11         -1.9980     0.0880     5.2350 ha         1 RPR       0.135000
     33 H31          1.8860    -0.5420     7.0420 ha         1 RPR       0.115000
     34 H41          0.8510    -0.4400     9.2850 ha         1 RPR       0.113000
     35 H51         -1.5930    -0.0640     9.5250 ha         1 RPR       0.109000
     36 H71          3.1420    -1.9250     2.8760 ha         1 RPR       0.125000
     37 H91          0.3460     1.0860     1.4710 ha         1 RPR       0.125000
     38 H101        -0.6460     1.1940     3.6950 ha         1 RPR       0.119000
     39 H121         2.1170    -1.8200     5.1030 ha         1 RPR       0.119000
     40 H141         1.2780     0.9630    -0.0750 hn         1 RPR       0.312500
     41 H151         2.9190    -0.6130    -1.9850 h1         1 RPR       0.101700
     42 H161         3.1970     2.4340    -1.7050 hc         1 RPR       0.043367
     43 H162         4.3780     1.2460    -1.1180 hc         1 RPR       0.043367
     44 H163         4.0700     1.3900    -2.8520 hc         1 RPR       0.043367
     45 H171         0.8950     1.5970    -2.5090 hc         1 RPR       0.072700
     46 H201         2.4290     1.2680    -4.4390 hc         1 RPR       0.061700
     47 H202         2.1180    -0.4560    -4.4280 hc         1 RPR       0.061700
     48 H211        -3.9890    -0.2820     6.7370 h1         1 RPR       0.035700
     49 H212        -3.8020    -0.1230     8.4990 h1         1 RPR       0.035700
     50 H221        -4.8060     1.8060     7.6300 hn         1 RPR       0.397500
     51 H222        -3.3500     2.1900     8.2130 hn         1 RPR       0.397500
     52 H231         0.2410    -1.3200    -5.6590 ha         1 RPR       0.145000
     53 H251        -2.6560     1.4080    -7.3800 ha         1 RPR       0.117000
     54 H261        -1.5650     3.2870    -6.2130 ha         1 RPR       0.114000
     55 H271         0.4160     2.8990    -4.7680 ha         1 RPR       0.111000
     56 H301        -2.7460    -1.7860    -9.0820 hn         1 RPR       0.461500
     57 H302        -2.5830    -0.1060    -8.8120 hn         1 RPR       0.461500
     58 H311        -2.4360    -3.0580    -7.4510 hn         1 RPR       0.371400
     59 H341        -2.9120     0.0420    -1.1660 h1         1 RPR       0.054700
     60 H342        -2.4720    -1.1220    -2.4340 h1         1 RPR       0.054700
     61 H343        -1.8410    -1.3220    -0.7800 h1         1 RPR       0.054700
     62 C13          2.4900    -0.5280     0.6200 c          1 RPR       0.621700
     63 C29         -1.9270    -1.2730    -7.3210 ce         1 RPR       0.659800
     64 O33          3.3910    -1.3200     0.3830 o          1 RPR      -0.587100
@<TRIPOS>BOND
     1     1     2 ar  
     2     1     6 ar  
     3     1    32 1   
     4     2     3 ar  
     5     2    11 1   
     6     3     4 ar  
     7     3    33 1   
     8     4     5 ar  
     9     4    34 1   
    10     5     6 ar  
    11     5    35 1   
    12     6    20 1   
    13     7     8 ar  
    14     7    12 ar  
    15     7    36 1   
    16     8     9 ar  
    17     8    62 1   
    18     9    10 ar  
    19     9    37 1   
    20    10    11 ar  
    21    10    38 1   
    22    11    12 ar  
    23    12    39 1   
    24    13    14 1   
    25    13    40 1   
    26    13    62 1   
    27    14    15 1   
    28    14    16 1   
    29    14    41 1   
    30    15    42 1   
    31    15    43 1   
    32    15    44 1   
    33    16    17 1   
    34    16    19 1   
    35    16    45 1   
    36    17    18 1   
    37    17    30 2   
    38    18    31 1   
    39    19    27 1   
    40    19    46 1   
    41    19    47 1   
    42    20    21 1   
    43    20    48 1   
    44    20    49 1   
    45    21    50 1   
    46    21    51 1   
    47    22    23 ar  
    48    22    27 ar  
    49    22    52 1   
    50    23    24 ar  
    51    23    63 1   
    52    24    25 ar  
    53    24    53 1   
    54    25    26 ar  
    55    25    54 1   
    56    26    27 ar  
    57    26    55 1   
    58    28    56 1   
    59    28    57 1   
    60    28    63 1   
    61    29    58 1   
    62    29    63 2   
    63    31    59 1   
    64    31    60 1   
    65    31    61 1   
    66    62    64 2   
@<TRIPOS>SUBSTRUCTURE
     1 RPR         1 TEMP              0 ****  ****    0 ROOT
