@<TRIPOS>MOLECULE
RPT
  127   132     1     0     0
SMALL
abcg2


@<TRIPOS>ATOM
      1 C1         136.0060   122.6180    40.2830 ca         1 RPT       0.135100
      2 C2         136.3730   121.4260    39.6980 ca         1 RPT      -0.092000
      3 C3         137.7320   121.0650    39.6060 ca         1 RPT      -0.092900
      4 C4         138.7010   121.9390    40.1040 ca         1 RPT       0.134100
      5 C5         139.2790   124.0830    41.2620 ca         1 RPT      -0.357600
      6 C6         138.8410   125.3010    41.7710 ca         1 RPT       0.251100
      7 C7         137.5120   125.6880    41.8760 ca         1 RPT      -0.203300
      8 C8         136.5810   124.7670    41.4130 ca         1 RPT       0.276100
      9 C9         136.9620   123.5080    40.8150 ca         1 RPT      -0.144000
     10 C10        138.3350   123.1500    40.7250 ca         1 RPT       0.042000
     11 C11        140.6910   124.0890    41.3970 c          1 RPT       0.558700
     12 C12        141.0790   125.4440    42.0100 c5         1 RPT       0.300000
     13 C13        141.7340   125.3050    43.3640 c3         1 RPT      -0.080100
     14 C14        137.1440   127.0180    42.4620 c3         1 RPT      -0.018800
     15 C15        134.8480   119.5820    39.9440 c          1 RPT       0.612300
     16 C16        133.8040   118.6780    39.3660 ce         1 RPT      -0.163400
     17 C17        133.4500   118.5390    38.0780 cf         1 RPT      -0.140000
     18 C18        134.0110   119.1020    36.8500 cf         1 RPT      -0.207000
     19 C19        135.2930   119.0220    36.4930 c2         1 RPT      -0.192200
     20 C20        135.8800   119.5930    35.2410 c3         1 RPT      -0.032500
     21 C21        136.4760   120.9770    35.5630 c3         1 RPT       0.187300
     22 C22        137.1700   121.6290    34.3560 c3         1 RPT      -0.087700
     23 C23        137.7760   123.0060    34.6730 c3         1 RPT       0.174300
     24 C24        138.7250   123.0520    35.8830 c3         1 RPT      -0.109700
     25 C25        139.3640   124.4530    36.0250 c3         1 RPT       0.180300
     26 C26        139.5280   124.8780    37.4920 c3         1 RPT      -0.053700
     27 C27        140.5890   125.9770    37.6690 c3         1 RPT       0.215500
     28 C28        140.7170   126.3620    39.1150 c2         1 RPT      -0.285200
     29 C29        141.7810   126.0080    39.8210 c2         1 RPT      -0.036900
     30 C30        133.0850   117.8730    40.4150 c3         1 RPT      -0.046900
     31 C31        136.9300   118.6380    34.6800 c3         1 RPT      -0.086100
     32 C32        136.2610   121.7250    33.1300 c3         1 RPT      -0.082100
     33 C33        139.7820   121.9490    35.8700 c3         1 RPT      -0.077100
     34 C34        138.1570   125.3140    38.0080 c3         1 RPT      -0.094100
     35 C36        142.2410   125.1010    33.8030 c3         1 RPT      -0.157100
     36 C38        138.8420   113.7550    37.0420 c5         1 RPT       0.181500
     37 C39        139.2450   116.1780    37.0730 c6         1 RPT       0.165800
     38 C40        139.1970   117.4010    37.9740 c6         1 RPT       0.192800
     39 C41        137.1870   116.4650    39.0060 c6         1 RPT       0.192800
     40 C42        137.2790   115.2980    38.0450 c6         1 RPT       0.165800
     41 C43        138.2050   119.8210    38.9990 ce         1 RPT       0.364800
     42 C44        140.2910   113.2850    36.9140 c5         1 RPT      -0.093900
     43 C45        138.2610   113.6210    35.6120 c5         1 RPT      -0.093900
     44 C46        140.1760   112.1240    35.9350 c5         1 RPT      -0.079900
     45 C47        139.1950   112.6390    34.8730 c5         1 RPT      -0.079900
     46 N1         135.3150   120.6280    39.2010 ns         1 RPT      -0.177000
     47 N2         137.4860   118.7650    39.0350 n2         1 RPT      -0.413400
     48 N3         137.8470   117.6290    38.4480 nh         1 RPT      -0.463700
     49 N4         138.6660   115.0250    37.7260 n3         1 RPT      -0.720600
     50 O1         134.7000   122.9600    40.3490 oh         1 RPT      -0.579100
     51 O2         135.3090   125.1110    41.5330 oh         1 RPT      -0.524100
     52 O3         139.8250   126.1180    42.1650 os         1 RPT      -0.329100
     53 O4         141.5400   123.2460    41.1190 o          1 RPT      -0.538100
     54 O5         141.9200   126.1740    41.1800 os         1 RPT      -0.337100
     55 O6         140.2220   127.0650    36.8550 os         1 RPT      -0.450000
     56 O7         140.6380   124.4680    35.3740 os         1 RPT      -0.457100
     57 O8         139.9150   125.6760    33.6280 o          1 RPT      -0.491000
     58 O9         136.6860   123.8970    34.8760 oh         1 RPT      -0.690000
     59 O10        135.4280   121.7690    36.0870 oh         1 RPT      -0.688000
     60 O11        135.1920   119.4440    41.1040 o          1 RPT      -0.577100
     61 O12        139.9760   121.5510    39.9550 oh         1 RPT      -0.587100
     62 H131       141.9620   126.2880    43.7770 hc         1 RPT       0.067700
     63 H132       141.0780   124.7800    44.0570 hc         1 RPT       0.067700
     64 H133       142.6610   124.7400    43.2740 hc         1 RPT       0.067700
     65 H141       136.0850   127.2330    42.3530 hc         1 RPT       0.047700
     66 H142       137.3810   127.0600    43.5260 hc         1 RPT       0.047700
     67 H143       137.6940   127.8260    41.9770 hc         1 RPT       0.047700
     68 H17        132.5890   117.8970    37.9010 ha         1 RPT       0.174000
     69 H18        133.2900   119.5360    36.1610 ha         1 RPT       0.184000
     70 H19        135.9930   118.5250    37.1570 ha         1 RPT       0.197000
     71 H20        135.0820   119.7310    34.5050 hc         1 RPT       0.063700
     72 H21        137.2380   120.8190    36.3450 h1         1 RPT       0.034700
     73 H22        138.0190   120.9930    34.0890 hc         1 RPT       0.057700
     74 H23        138.3360   123.3050    33.7760 h1         1 RPT       0.045700
     75 H24        138.1050   122.8990    36.7740 hc         1 RPT       0.071700
     76 H25        138.7420   125.2110    35.5450 h1         1 RPT       0.069700
     77 H26        139.8720   124.0210    38.0840 hc         1 RPT       0.067700
     78 H27        141.5600   125.5720    37.3460 h1         1 RPT       0.043700
     79 H28        139.8860   126.8820    39.5790 ha         1 RPT       0.203000
     80 H29        142.6470   125.5420    39.3580 h4         1 RPT       0.199000
     81 H301       132.2900   117.2810    39.9650 hc         1 RPT       0.047033
     82 H302       133.7650   117.1860    40.9190 hc         1 RPT       0.047033
     83 H303       132.6420   118.5060    41.1850 hc         1 RPT       0.047033
     84 H311       137.2970   118.9540    33.7040 hc         1 RPT       0.035700
     85 H312       137.7890   118.5640    35.3520 hc         1 RPT       0.035700
     86 H313       136.5200   117.6340    34.5660 hc         1 RPT       0.035700
     87 H321       136.7370   122.3130    32.3440 hc         1 RPT       0.039700
     88 H322       136.0550   120.7400    32.7090 hc         1 RPT       0.039700
     89 H323       135.3060   122.1930    33.3620 hc         1 RPT       0.039700
     90 H331       140.4820   122.0660    36.6980 hc         1 RPT       0.039700
     91 H332       139.3220   120.9690    35.9880 hc         1 RPT       0.039700
     92 H333       140.3560   121.9320    34.9440 hc         1 RPT       0.039700
     93 H341       138.1970   125.5970    39.0560 hc         1 RPT       0.044033
     94 H342       137.7780   126.1680    37.4460 hc         1 RPT       0.044033
     95 H343       137.4260   124.5100    37.9300 hc         1 RPT       0.044033
     96 H361       142.3910   125.7250    32.9270 hc         1 RPT       0.068367
     97 H362       142.8980   125.4400    34.6040 hc         1 RPT       0.068367
     98 H363       142.5330   124.0780    33.5610 hc         1 RPT       0.068367
     99 H371       140.8600   128.8030    36.0400 h1         1 RPT       0.031033
    100 H372       141.4730   128.5190    37.6780 h1         1 RPT       0.031033
    101 H373       142.1520   127.6210    36.3100 h1         1 RPT       0.031033
    102 H38        138.3350   113.0150    37.6730 h1         1 RPT       0.056700
    103 H391       138.7340   116.4270    36.1300 h1         1 RPT       0.039450
    104 H392       140.2910   115.9920    36.8280 h1         1 RPT       0.039450
    105 H401       139.8930   117.2940    38.8190 h1         1 RPT       0.052450
    106 H402       139.5320   118.2560    37.3830 h1         1 RPT       0.052450
    107 H411       136.1440   116.7220    39.1920 h1         1 RPT       0.052450
    108 H412       137.6430   116.1840    39.9650 h1         1 RPT       0.052450
    109 H421       136.8360   114.4200    38.5200 h1         1 RPT       0.039450
    110 H422       136.6790   115.5200    37.1460 h1         1 RPT       0.039450
    111 H43        139.1940   119.8500    38.5510 h4         1 RPT       0.005800
    112 H441       140.9260   114.0640    36.4830 hc         1 RPT       0.046200
    113 H442       140.7210   113.0050    37.8770 hc         1 RPT       0.046200
    114 H451       137.2310   113.2630    35.6420 hc         1 RPT       0.046200
    115 H452       138.2340   114.5860    35.1010 hc         1 RPT       0.046200
    116 H461       141.1350   111.8200    35.5130 hc         1 RPT       0.042950
    117 H462       139.7580   111.2520    36.4450 hc         1 RPT       0.042950
    118 H471       138.6510   111.8290    34.3870 hc         1 RPT       0.042950
    119 H472       139.7440   113.1630    34.0870 hc         1 RPT       0.042950
    120 HN1        135.1200   120.6680    38.2080 hn         1 RPT       0.185000
    121 HO1        134.1600   122.2720    39.9280 ho         1 RPT       0.509000
    122 HO2        134.7210   124.4270    41.1580 ho         1 RPT       0.518000
    123 HO9        136.9630   124.8090    34.7530 ho         1 RPT       0.462000
    124 H10        135.6520   122.7010    35.9630 ho         1 RPT       0.477000
    125 H12        140.6370   122.1430    40.3940 ho         1 RPT       0.517000
    126 C35        140.8050   125.1350    34.2350 c          1 RPT       0.604100
    127 C37        141.2270   128.0400    36.7240 c3         1 RPT       0.144900
@<TRIPOS>BOND
     1     1     2 ar  
     2     1     9 ar  
     3     1    50 1   
     4     2     3 ar  
     5     2    46 1   
     6     3     4 ar  
     7     3    41 1   
     8     4    10 ar  
     9     4    61 1   
    10     5     6 ar  
    11     5    10 ar  
    12     5    11 1   
    13     6     7 ar  
    14     6    52 1   
    15     7     8 ar  
    16     7    14 1   
    17     8     9 ar  
    18     8    51 1   
    19     9    10 ar  
    20    11    12 1   
    21    11    53 2   
    22    12    13 1   
    23    12    52 1   
    24    12    54 1   
    25    13    62 1   
    26    13    63 1   
    27    13    64 1   
    28    14    65 1   
    29    14    66 1   
    30    14    67 1   
    31    15    16 1   
    32    15    46 1   
    33    15    60 2   
    34    16    17 2   
    35    16    30 1   
    36    17    18 1   
    37    17    68 1   
    38    18    19 2   
    39    18    69 1   
    40    19    20 1   
    41    19    70 1   
    42    20    21 1   
    43    20    31 1   
    44    20    71 1   
    45    21    22 1   
    46    21    59 1   
    47    21    72 1   
    48    22    23 1   
    49    22    32 1   
    50    22    73 1   
    51    23    24 1   
    52    23    58 1   
    53    23    74 1   
    54    24    25 1   
    55    24    33 1   
    56    24    75 1   
    57    25    26 1   
    58    25    56 1   
    59    25    76 1   
    60    26    27 1   
    61    26    34 1   
    62    26    77 1   
    63    27    28 1   
    64    27    55 1   
    65    27    78 1   
    66    28    29 2   
    67    28    79 1   
    68    29    54 1   
    69    29    80 1   
    70    30    81 1   
    71    30    82 1   
    72    30    83 1   
    73    31    84 1   
    74    31    85 1   
    75    31    86 1   
    76    32    87 1   
    77    32    88 1   
    78    32    89 1   
    79    33    90 1   
    80    33    91 1   
    81    33    92 1   
    82    34    93 1   
    83    34    94 1   
    84    34    95 1   
    85    35    96 1   
    86    35    97 1   
    87    35    98 1   
    88    35   126 1   
    89    36    42 1   
    90    36    43 1   
    91    36    49 1   
    92    36   102 1   
    93    37    38 1   
    94    37    49 1   
    95    37   103 1   
    96    37   104 1   
    97    38    48 1   
    98    38   105 1   
    99    38   106 1   
   100    39    40 1   
   101    39    48 1   
   102    39   107 1   
   103    39   108 1   
   104    40    49 1   
   105    40   109 1   
   106    40   110 1   
   107    41    47 2   
   108    41   111 1   
   109    42    44 1   
   110    42   112 1   
   111    42   113 1   
   112    43    45 1   
   113    43   114 1   
   114    43   115 1   
   115    44    45 1   
   116    44   116 1   
   117    44   117 1   
   118    45   118 1   
   119    45   119 1   
   120    46   120 1   
   121    47    48 1   
   122    50   121 1   
   123    51   122 1   
   124    55   127 1   
   125    56   126 1   
   126    57   126 2   
   127    58   123 1   
   128    59   124 1   
   129    61   125 1   
   130    99   127 1   
   131   100   127 1   
   132   101   127 1   
@<TRIPOS>SUBSTRUCTURE
     1 RPT         1 TEMP              0 ****  ****    0 ROOT
