@<TRIPOS>MOLECULE
RPT
  127   132     1     0     0
SMALL
No Charge or Current Charge


@<TRIPOS>ATOM
      1 C1         136.1130   122.5350    40.3420 ca         1 RPT       0.135100
      2 C2         136.4780   121.2990    39.7730 ca         1 RPT      -0.092000
      3 C3         137.8440   120.9610    39.6430 ca         1 RPT      -0.092900
      4 C4         138.8320   121.8660    40.0900 ca         1 RPT       0.134100
      5 C5         139.4310   124.1110    41.1280 ca         1 RPT      -0.357600
      6 C6         139.0180   125.3140    41.6880 ca         1 RPT       0.251100
      7 C7         137.6710   125.6240    41.8590 ca         1 RPT      -0.203300
      8 C8         136.7180   124.6930    41.4190 ca         1 RPT       0.276100
      9 C9         137.0970   123.4530    40.8160 ca         1 RPT      -0.144000
     10 C10        138.4840   123.1310    40.6730 ca         1 RPT       0.042000
     11 C11        140.9180   124.1630    41.0780 c          1 RPT       0.558700
     12 C12        141.2550   125.5300    41.7720 c5         1 RPT       0.300000
     13 C13        141.9300   125.2910    43.1380 c3         1 RPT      -0.080100
     14 C14        137.2410   126.9610    42.4750 c3         1 RPT      -0.018800
     15 C15        134.6320   119.6000    40.1030 c          1 RPT       0.612300
     16 C16        133.5270   118.8380    39.3910 ce         1 RPT      -0.163400
     17 C17        133.3050   118.7670    38.0360 cf         1 RPT      -0.140000
     18 C18        134.1020   119.2710    36.9250 cf         1 RPT      -0.207000
     19 C19        135.4040   118.9710    36.7260 c2         1 RPT      -0.192200
     20 C20        136.2440   119.3750    35.5220 c3         1 RPT      -0.032500
     21 C21        136.7160   120.8660    35.5990 c3         1 RPT       0.187300
     22 C22        137.6790   121.3420    34.4580 c3         1 RPT      -0.087700
     23 C23        138.1470   122.8290    34.6100 c3         1 RPT       0.174300
     24 C24        138.8100   123.2070    35.9730 c3         1 RPT      -0.109700
     25 C25        139.2480   124.7170    36.0490 c3         1 RPT       0.180300
     26 C26        139.3690   125.2650    37.5090 c3         1 RPT      -0.053700
     27 C27        140.2750   126.5300    37.6500 c3         1 RPT       0.215500
     28 C28        140.6730   126.7470    39.0960 c2         1 RPT      -0.285200
     29 C29        141.8330   126.3280    39.6290 c2         1 RPT      -0.036900
     30 C30        132.5380   118.1490    40.3310 c3         1 RPT      -0.046900
     31 C31        137.4210   118.3780    35.3750 c3         1 RPT      -0.086100
     32 C32        137.1150   121.0880    33.0280 c3         1 RPT      -0.082100
     33 C33        139.9710   122.2380    36.3510 c3         1 RPT      -0.077100
     34 C34        137.9560   125.4970    38.1240 c3         1 RPT      -0.094100
     35 C36        142.0080   125.2300    33.5570 c3         1 RPT      -0.157100
     36 C38        138.5490   113.5110    36.7240 c5         1 RPT       0.181500
     37 C39        139.4260   115.8450    37.4390 c6         1 RPT       0.165800
     38 C40        139.4520   116.8770    38.6100 c6         1 RPT       0.192800
     39 C41        137.2030   116.0730    39.3320 c6         1 RPT       0.192800
     40 C42        137.1940   115.0820    38.1310 c6         1 RPT       0.165800
     41 C43        138.2960   119.6240    39.1210 ce         1 RPT       0.364800
     42 C44        139.9800   113.0180    36.3960 c5         1 RPT      -0.093900
     43 C45        138.0920   113.9910    35.3190 c5         1 RPT      -0.093900
     44 C46        139.6560   112.0560    35.2200 c5         1 RPT      -0.079900
     45 C47        138.5250   112.7900    34.4190 c5         1 RPT      -0.079900
     46 N1         135.4580   120.4030    39.3330 ns         1 RPT      -0.177000
     47 N2         137.6550   118.5200    39.3810 n2         1 RPT      -0.413400
     48 N3         138.0700   117.2510    39.0570 nh         1 RPT      -0.463700
     49 N4         138.5640   114.6410    37.7180 n3         1 RPT      -0.720600
     50 O1         134.7740   122.8390    40.4000 oh         1 RPT      -0.579100
     51 O2         135.4070   125.0210    41.5750 oh         1 RPT      -0.524100
     52 O3         140.0030   126.2150    42.0210 os         1 RPT      -0.329100
     53 O4         141.6680   123.3700    40.5210 o          1 RPT      -0.538100
     54 O5         142.1360   126.3900    40.9710 os         1 RPT      -0.337100
     55 O6         139.5530   127.6840    37.1830 os         1 RPT      -0.450000
     56 O7         140.5290   124.8500    35.3940 os         1 RPT      -0.457100
     57 O8         139.6000   125.4160    33.3630 o          1 RPT      -0.491000
     58 O9         137.0200   123.6910    34.3870 oh         1 RPT      -0.690000
     59 O10        135.5910   121.7460    35.6020 oh         1 RPT      -0.688000
     60 O11        134.7540   119.5630    41.3240 o          1 RPT      -0.577100
     61 O12        140.1250   121.4410    39.9760 oh         1 RPT      -0.587100
     62 H131       142.1470   126.2410    43.6390 hc         1 RPT       0.067700
     63 H132       141.2870   124.6990    43.7990 hc         1 RPT       0.067700
     64 H133       142.8760   124.7490    43.0170 hc         1 RPT       0.067700
     65 H141       136.7940   127.6130    41.7150 hc         1 RPT       0.047700
     66 H142       136.4980   126.8130    43.2670 hc         1 RPT       0.047700
     67 H143       138.0760   127.5100    42.9260 hc         1 RPT       0.047700
     68 H17        132.3990   118.2480    37.7140 ha         1 RPT       0.174000
     69 H18        133.5690   119.8390    36.1580 ha         1 RPT       0.184000
     70 H19        135.9130   118.3340    37.4490 ha         1 RPT       0.197000
     71 H20        135.6180   119.2660    34.6280 hc         1 RPT       0.063700
     72 H21        137.2510   120.9710    36.5520 h1         1 RPT       0.034700
     73 H22        138.5870   120.7330    34.5240 hc         1 RPT       0.057700
     74 H23        138.8940   122.9950    33.8220 h1         1 RPT       0.045700
     75 H24        138.0400   123.0720    36.7380 hc         1 RPT       0.071700
     76 H25        138.5000   125.3550    35.5600 h1         1 RPT       0.069700
     77 H26        139.8510   124.4910    38.1140 hc         1 RPT       0.067700
     78 H27        141.1950   126.3950    37.0650 h1         1 RPT       0.043700
     79 H28        139.9160   127.2390    39.7030 ha         1 RPT       0.203000
     80 H29        142.6090   125.8430    39.0320 h4         1 RPT       0.199000
     81 H301       131.6700   117.7370    39.8020 hc         1 RPT       0.047033
     82 H302       133.0160   117.3180    40.8640 hc         1 RPT       0.047033
     83 H303       132.1490   118.8460    41.0840 hc         1 RPT       0.047033
     84 H311       137.9400   118.5000    34.4190 hc         1 RPT       0.035700
     85 H312       138.1490   118.5190    36.1830 hc         1 RPT       0.035700
     86 H313       137.0560   117.3440    35.4170 hc         1 RPT       0.035700
     87 H321       137.8110   121.4640    32.2680 hc         1 RPT       0.039700
     88 H322       136.9720   120.0190    32.8360 hc         1 RPT       0.039700
     89 H323       136.1510   121.5900    32.8810 hc         1 RPT       0.039700
     90 H331       140.4950   122.5610    37.2560 hc         1 RPT       0.039700
     91 H332       139.5990   121.2260    36.5470 hc         1 RPT       0.039700
     92 H333       140.7090   122.1760    35.5410 hc         1 RPT       0.039700
     93 H341       138.0240   125.9540    39.1150 hc         1 RPT       0.044033
     94 H342       137.3590   126.1670    37.4930 hc         1 RPT       0.044033
     95 H343       137.4020   124.5590    38.2320 hc         1 RPT       0.044033
     96 H361       142.0710   125.4970    32.4970 hc         1 RPT       0.068367
     97 H362       142.5810   125.9180    34.1870 hc         1 RPT       0.068367
     98 H363       142.4890   124.2680    33.7660 hc         1 RPT       0.068367
     99 H371       139.7130   129.6970    36.6470 h1         1 RPT       0.031033
    100 H372       140.7480   129.2050    38.0030 h1         1 RPT       0.031033
    101 H373       141.1660   128.7230    36.3390 h1         1 RPT       0.031033
    102 H38        137.9240   112.6790    37.0810 h1         1 RPT       0.056700
    103 H391       139.0740   116.3660    36.5400 h1         1 RPT       0.039450
    104 H392       140.4670   115.5510    37.2510 h1         1 RPT       0.039450
    105 H401       139.9940   116.4310    39.4550 h1         1 RPT       0.052450
    106 H402       140.0320   117.7490    38.2860 h1         1 RPT       0.052450
    107 H411       136.1720   116.3950    39.5370 h1         1 RPT       0.052450
    108 H412       137.5650   115.5480    40.2270 h1         1 RPT       0.052450
    109 H421       136.5840   114.2100    38.4100 h1         1 RPT       0.039450
    110 H422       136.6850   115.5690    37.2860 h1         1 RPT       0.039450
    111 H43        139.1950   119.6300    38.5040 h4         1 RPT       0.005800
    112 H441       140.6560   113.8100    36.0570 hc         1 RPT       0.046200
    113 H442       140.4550   112.5060    37.2400 hc         1 RPT       0.046200
    114 H451       137.0140   114.1790    35.2670 hc         1 RPT       0.046200
    115 H452       138.5980   114.9050    34.9930 hc         1 RPT       0.046200
    116 H461       140.5370   111.8510    34.6020 hc         1 RPT       0.042950
    117 H462       139.2990   111.0890    35.5950 hc         1 RPT       0.042950
    118 H471       137.6840   112.1120    34.2280 hc         1 RPT       0.042950
    119 H472       138.8780   113.1370    33.4410 hc         1 RPT       0.042950
    120 HN1        135.3170   120.3420    38.3310 hn         1 RPT       0.185000
    121 HO1        134.2800   122.1510    39.9030 ho         1 RPT       0.509000
    122 HO2        134.9180   124.2550    41.1760 ho         1 RPT       0.518000
    123 HO9        137.3430   124.4320    33.8250 ho         1 RPT       0.462000
    124 H10        135.9430   122.5670    35.1630 ho         1 RPT       0.477000
    125 H12        140.7370   122.1940    40.1930 ho         1 RPT       0.517000
    126 C35        140.5750   125.1800    34.0640 c          1 RPT       0.604100
    127 C37        140.3350   128.8830    37.0380 c3         1 RPT       0.144900
@<TRIPOS>BOND
     1     1     2 ar  
     2     1     9 ar  
     3     1    50 1   
     4     2     3 ar  
     5     2    46 1   
     6     3     4 ar  
     7     3    41 1   
     8     4    10 ar  
     9     4    61 1   
    10     5     6 ar  
    11     5    10 ar  
    12     5    11 1   
    13     6     7 ar  
    14     6    52 1   
    15     7     8 ar  
    16     7    14 1   
    17     8     9 ar  
    18     8    51 1   
    19     9    10 ar  
    20    11    12 1   
    21    11    53 2   
    22    12    13 1   
    23    12    52 1   
    24    12    54 1   
    25    13    62 1   
    26    13    63 1   
    27    13    64 1   
    28    14    65 1   
    29    14    66 1   
    30    14    67 1   
    31    15    16 1   
    32    15    46 1   
    33    15    60 2   
    34    16    17 2   
    35    16    30 1   
    36    17    18 1   
    37    17    68 1   
    38    18    19 2   
    39    18    69 1   
    40    19    20 1   
    41    19    70 1   
    42    20    21 1   
    43    20    31 1   
    44    20    71 1   
    45    21    22 1   
    46    21    59 1   
    47    21    72 1   
    48    22    23 1   
    49    22    32 1   
    50    22    73 1   
    51    23    24 1   
    52    23    58 1   
    53    23    74 1   
    54    24    25 1   
    55    24    33 1   
    56    24    75 1   
    57    25    26 1   
    58    25    56 1   
    59    25    76 1   
    60    26    27 1   
    61    26    34 1   
    62    26    77 1   
    63    27    28 1   
    64    27    55 1   
    65    27    78 1   
    66    28    29 2   
    67    28    79 1   
    68    29    54 1   
    69    29    80 1   
    70    30    81 1   
    71    30    82 1   
    72    30    83 1   
    73    31    84 1   
    74    31    85 1   
    75    31    86 1   
    76    32    87 1   
    77    32    88 1   
    78    32    89 1   
    79    33    90 1   
    80    33    91 1   
    81    33    92 1   
    82    34    93 1   
    83    34    94 1   
    84    34    95 1   
    85    35    96 1   
    86    35    97 1   
    87    35    98 1   
    88    35   126 1   
    89    36    42 1   
    90    36    43 1   
    91    36    49 1   
    92    36   102 1   
    93    37    38 1   
    94    37    49 1   
    95    37   103 1   
    96    37   104 1   
    97    38    48 1   
    98    38   105 1   
    99    38   106 1   
   100    39    40 1   
   101    39    48 1   
   102    39   107 1   
   103    39   108 1   
   104    40    49 1   
   105    40   109 1   
   106    40   110 1   
   107    41    47 2   
   108    41   111 1   
   109    42    44 1   
   110    42   112 1   
   111    42   113 1   
   112    43    45 1   
   113    43   114 1   
   114    43   115 1   
   115    44    45 1   
   116    44   116 1   
   117    44   117 1   
   118    45   118 1   
   119    45   119 1   
   120    46   120 1   
   121    47    48 1   
   122    50   121 1   
   123    51   122 1   
   124    55   127 1   
   125    56   126 1   
   126    57   126 2   
   127    58   123 1   
   128    59   124 1   
   129    61   125 1   
   130    99   127 1   
   131   100   127 1   
   132   101   127 1   
@<TRIPOS>SUBSTRUCTURE
     1 RPT         1 TEMP              0 ****  ****    0 ROOT
