@<TRIPOS>MOLECULE
RPU
   43    45     1     0     0
SMALL
No Charge or Current Charge


@<TRIPOS>ATOM
      1 C16        -42.6640   -32.6890     2.4280 c          1 RPU       0.709000
      2 C15        -42.5550   -31.7820     1.1980 c3         1 RPU      -0.216400
      3 C14        -45.4040   -29.9010     0.4880 ca         1 RPU      -0.105000
      4 C13        -46.5400   -29.2590     1.0250 ca         1 RPU      -0.111000
      5 C11        -48.8300   -30.6340     3.4160 c5         1 RPU       0.370600
      6 C20        -46.3390   -35.5690    -1.5230 c3         1 RPU      -0.088700
      7 C01        -43.9940   -35.7680    -2.5560 c3         1 RPU      -0.078100
      8 C02        -44.8380   -35.2010    -1.3900 c3         1 RPU      -0.138700
      9 C03        -44.6470   -33.6760    -1.2520 c          1 RPU       0.594100
     10 C05        -43.8090   -31.8830     0.3000 c3         1 RPU       0.174000
     11 C06        -45.0440   -31.2090     0.9050 ca         1 RPU      -0.064300
     12 C07        -45.8400   -31.8730     1.8720 ca         1 RPU      -0.044000
     13 C08        -46.9610   -31.2090     2.3840 ca         1 RPU       0.041100
     14 C09        -47.2990   -29.9510     1.9750 ca         1 RPU       0.032100
     15 C21        -47.1880   -35.0050    -0.4170 cc         1 RPU       0.128300
     16 C22        -48.1690   -34.0540    -0.4380 cd         1 RPU      -0.169000
     17 C23        -48.6280   -33.9080     0.8860 cd         1 RPU      -0.185000
     18 C24        -47.9050   -34.7720     1.6630 cc         1 RPU       0.132900
     19 N04        -44.0750   -33.2690    -0.0720 ns         1 RPU      -0.484900
     20 O10        -48.4080   -29.4820     2.6020 os         1 RPU      -0.368100
     21 O12        -47.8130   -31.6930     3.3250 os         1 RPU      -0.353100
     22 O17        -43.0530   -32.2000     3.4760 o          1 RPU      -0.733000
     23 O18        -42.4090   -33.8750     2.2860 o          1 RPU      -0.733000
     24 O19        -44.9810   -32.8840    -2.1230 o          1 RPU      -0.666100
     25 O25        -47.0080   -35.4570     0.8710 os         1 RPU      -0.258000
     26 H152       -41.7350   -32.1330     0.5610 hc         1 RPU       0.039200
     27 H151       -42.4540   -30.7300     1.4920 hc         1 RPU       0.039200
     28 H141       -44.8000   -29.3820    -0.2530 ha         1 RPU       0.112000
     29 H131       -46.8180   -28.2560     0.7120 ha         1 RPU       0.115000
     30 H112       -48.9500   -30.3250     4.4610 h2         1 RPU       0.051700
     31 H111       -49.7790   -31.0180     3.0240 h2         1 RPU       0.051700
     32 H012       -42.9330   -35.5240    -2.4170 hc         1 RPU       0.034700
     33 H013       -44.0870   -36.8600    -2.6070 hc         1 RPU       0.034700
     34 H011       -44.3200   -35.3500    -3.5160 hc         1 RPU       0.034700
     35 H021       -44.4680   -35.6710    -0.4700 hc         1 RPU       0.074700
     36 H051       -43.5670   -31.3430    -0.6250 h1         1 RPU       0.045700
     37 H071       -45.5940   -32.8730     2.2190 ha         1 RPU       0.167000
     38 H221       -48.5210   -33.5160    -1.3120 ha         1 RPU       0.139000
     39 H231       -49.4040   -33.2350     1.2360 ha         1 RPU       0.136000
     40 H241       -47.9190   -34.9860     2.7230 h4         1 RPU       0.050100
     41 H041       -43.7780   -33.9940     0.5720 hn         1 RPU       0.378500
     42 H202       -46.7160   -35.2060    -2.4870 hc         1 RPU       0.055200
     43 H201       -46.4450   -36.6600    -1.5400 hc         1 RPU       0.055200
@<TRIPOS>BOND
     1     1     2 1   
     2     1    22 1   
     3     1    23 1   
     4     2    10 1   
     5     2    26 1   
     6     2    27 1   
     7     3     4 ar  
     8     3    11 ar  
     9     3    28 1   
    10     4    14 ar  
    11     4    29 1   
    12     5    20 1   
    13     5    21 1   
    14     5    30 1   
    15     5    31 1   
    16     6     8 1   
    17     6    15 1   
    18     6    42 1   
    19     6    43 1   
    20     7     8 1   
    21     7    32 1   
    22     7    33 1   
    23     7    34 1   
    24     8     9 1   
    25     8    35 1   
    26     9    19 1   
    27     9    24 2   
    28    10    11 1   
    29    10    19 1   
    30    10    36 1   
    31    11    12 ar  
    32    12    13 ar  
    33    12    37 1   
    34    13    14 ar  
    35    13    21 1   
    36    14    20 1   
    37    15    16 2   
    38    15    25 1   
    39    16    17 1   
    40    16    38 1   
    41    17    18 2   
    42    17    39 1   
    43    18    25 1   
    44    18    40 1   
    45    19    41 1   
@<TRIPOS>SUBSTRUCTURE
     1 RPU         1 TEMP              0 ****  ****    0 ROOT
