@<TRIPOS>MOLECULE
RPU
   43    45     1     0     0
SMALL
abcg2


@<TRIPOS>ATOM
      1 C16        -42.7510   -32.6240     2.5640 c          1 RPU       0.709000
      2 C15        -42.6320   -31.7990     1.2660 c3         1 RPU      -0.216400
      3 C14        -45.5210   -30.0360     0.3540 ca         1 RPU      -0.105000
      4 C13        -46.6760   -29.3980     0.8340 ca         1 RPU      -0.111000
      5 C11        -48.6940   -30.5720     3.5510 c5         1 RPU       0.370600
      6 C20        -46.3110   -35.4740    -1.5890 c3         1 RPU      -0.088700
      7 C01        -43.9740   -35.7250    -2.5210 c3         1 RPU      -0.078100
      8 C02        -44.8130   -35.1840    -1.3620 c3         1 RPU      -0.138700
      9 C03        -44.6040   -33.6820    -1.2090 c          1 RPU       0.594100
     10 C05        -43.8280   -31.8980     0.3010 c3         1 RPU       0.174000
     11 C06        -45.0880   -31.2580     0.8580 ca         1 RPU      -0.064300
     12 C07        -45.8140   -31.8940     1.8820 ca         1 RPU      -0.044000
     13 C08        -46.9350   -31.2550     2.3510 ca         1 RPU       0.041100
     14 C09        -47.3630   -30.0380     1.8370 ca         1 RPU       0.032100
     15 C21        -47.1960   -34.9560    -0.5150 cc         1 RPU       0.128300
     16 C22        -48.1380   -33.9780    -0.4700 cd         1 RPU      -0.169000
     17 C23        -48.6260   -33.9280     0.8780 cd         1 RPU      -0.185000
     18 C24        -47.9460   -34.8770     1.5620 cc         1 RPU       0.132900
     19 N04        -44.0420   -33.2930    -0.0590 ns         1 RPU      -0.484900
     20 O10        -48.5420   -29.6720     2.4430 os         1 RPU      -0.368100
     21 O12        -47.8250   -31.6880     3.3050 os         1 RPU      -0.353100
     22 O17        -42.5080   -32.0390     3.6440 o          1 RPU      -0.733000
     23 O18        -43.0600   -33.8460     2.4400 o          1 RPU      -0.733000
     24 O19        -44.9410   -32.8920    -2.1000 o          1 RPU      -0.666100
     25 O25        -47.0670   -35.5170     0.7310 os         1 RPU      -0.258000
     26 H152       -41.7410   -32.1500     0.7360 hc         1 RPU       0.039200
     27 H151       -42.4790   -30.7510     1.5190 hc         1 RPU       0.039200
     28 H141       -44.9540   -29.5650    -0.4400 ha         1 RPU       0.112000
     29 H131       -47.0150   -28.4560     0.4240 ha         1 RPU       0.115000
     30 H112       -48.3850   -30.0690     4.4720 h2         1 RPU       0.051700
     31 H111       -49.7240   -30.9170     3.6000 h2         1 RPU       0.051700
     32 H012       -42.9100   -35.5580    -2.3450 hc         1 RPU       0.034700
     33 H013       -44.1370   -36.7980    -2.6350 hc         1 RPU       0.034700
     34 H011       -44.2500   -35.2340    -3.4550 hc         1 RPU       0.034700
     35 H021       -44.5020   -35.6760    -0.4380 hc         1 RPU       0.074700
     36 H051       -43.5680   -31.3600    -0.6110 h1         1 RPU       0.045700
     37 H071       -45.5120   -32.8550     2.2720 ha         1 RPU       0.167000
     38 H221       -48.4430   -33.3590    -1.2980 ha         1 RPU       0.139000
     39 H231       -49.3660   -33.2580     1.2820 ha         1 RPU       0.136000
     40 H241       -47.9500   -35.2040     2.5880 h4         1 RPU       0.050100
     41 H041       -43.7970   -33.9540     0.6750 hn         1 RPU       0.378500
     42 H202       -46.6240   -35.0210    -2.5300 hc         1 RPU       0.055200
     43 H201       -46.4360   -36.5570    -1.6890 hc         1 RPU       0.055200
@<TRIPOS>BOND
     1     1     2 1   
     2     1    22 1   
     3     1    23 1   
     4     2    10 1   
     5     2    26 1   
     6     2    27 1   
     7     3     4 ar  
     8     3    11 ar  
     9     3    28 1   
    10     4    14 ar  
    11     4    29 1   
    12     5    20 1   
    13     5    21 1   
    14     5    30 1   
    15     5    31 1   
    16     6     8 1   
    17     6    15 1   
    18     6    42 1   
    19     6    43 1   
    20     7     8 1   
    21     7    32 1   
    22     7    33 1   
    23     7    34 1   
    24     8     9 1   
    25     8    35 1   
    26     9    19 1   
    27     9    24 2   
    28    10    11 1   
    29    10    19 1   
    30    10    36 1   
    31    11    12 ar  
    32    12    13 ar  
    33    12    37 1   
    34    13    14 ar  
    35    13    21 1   
    36    14    20 1   
    37    15    16 2   
    38    15    25 1   
    39    16    17 1   
    40    16    38 1   
    41    17    18 2   
    42    17    39 1   
    43    18    25 1   
    44    18    40 1   
    45    19    41 1   
@<TRIPOS>SUBSTRUCTURE
     1 RPU         1 TEMP              0 ****  ****    0 ROOT
