@<TRIPOS>MOLECULE
RPV
   45    48     1     0     0
SMALL
bcc


@<TRIPOS>ATOM
      1 C10         37.9220    60.8780     2.7380 ca         1 RPV      -0.128000
      2 C13         39.1530    60.8420     5.2280 ca         1 RPV      -0.123500
      3 C20         40.5550    65.2720     7.9800 cc         1 RPV      -0.123400
      4 C21         41.5370    66.1920     8.2190 cd         1 RPV      -0.110100
      5 C24         39.1200    67.2320    10.6720 ca         1 RPV      -0.153000
      6 C26         37.4570    65.5390    10.1500 ca         1 RPV      -0.169000
      7 C28         39.5010    65.5720     8.9040 ca         1 RPV      -0.096800
      8 O01         44.6900    60.7280     6.3820 o          1 RPV      -0.834800
      9 O03         45.4840    59.0040     5.1960 o          1 RPV      -0.834800
     10 C04         43.2840    59.6970     4.8260 cc         1 RPV      -0.323900
     11 C05         42.8110    58.6900     3.9660 cc         1 RPV       0.349200
     12 N06         41.5700    58.8980     3.5900 nd         1 RPV      -0.569800
     13 N07         41.1990    60.0410     4.1970 na         1 RPV       0.137300
     14 C08         39.8590    60.4720     4.0910 ca         1 RPV       0.069800
     15 C09         39.2460    60.4810     2.8450 ca         1 RPV      -0.123500
     16 C11         37.2140    61.2750     3.8660 ca         1 RPV      -0.151000
     17 C12         37.8340    61.2570     5.1080 ca         1 RPV      -0.128000
     18 C14         42.2120    60.5600     4.9310 cd         1 RPV       0.044300
     19 N15         42.1500    61.7280     5.6670 ns         1 RPV      -0.449100
     20 C16         41.7240    62.9300     5.1730 c          1 RPV       0.662100
     21 O17         41.2380    63.0530     4.0670 o          1 RPV      -0.596100
     22 C18         41.8290    64.0670     6.1600 c3         1 RPV      -0.157400
     23 C19         40.5410    64.1640     6.9800 c3         1 RPV      -0.001200
     24 N22         41.1570    67.0380     9.2260 na         1 RPV      -0.180400
     25 C23         39.9170    66.6840     9.6690 ca         1 RPV      -0.046200
     26 C25         37.8900    66.6450    10.9000 ca         1 RPV      -0.115000
     27 C27         38.2490    65.0000     9.1550 ca         1 RPV      -0.071000
     28 H1          37.4450    60.8850     1.7670 ha         1 RPV       0.118500
     29 H2          39.6210    60.8060     6.2030 ha         1 RPV       0.148000
     30 H3          42.4980    66.3160     7.7440 h4         1 RPV       0.166000
     31 H4          39.4510    68.0850    11.2520 ha         1 RPV       0.124000
     32 H5          36.4870    65.1060    10.3580 ha         1 RPV       0.123000
     33 H7          43.3420    57.8160     3.6170 h4         1 RPV       0.036100
     34 H8          39.8020    60.1850     1.9660 ha         1 RPV       0.148000
     35 H9          36.1830    61.5910     3.7770 ha         1 RPV       0.116000
     36 H10         37.2870    61.5510     5.9940 ha         1 RPV       0.118500
     37 H11         42.8620    61.7350     6.3940 hn         1 RPV       0.375500
     38 H12         42.6810    63.9260     6.8290 hc         1 RPV       0.063200
     39 H13         41.9910    64.9920     5.6050 hc         1 RPV       0.063200
     40 H14         39.6910    64.2930     6.3010 hc         1 RPV       0.058200
     41 H15         40.3690    63.2130     7.4930 hc         1 RPV       0.058200
     42 H16         41.7150    67.7940     9.5840 hn         1 RPV       0.294700
     43 H17         37.2460    67.0460    11.6730 ha         1 RPV       0.119000
     44 H18         37.9070    64.1470     8.5820 ha         1 RPV       0.135000
     45 C02         44.6040    59.8190     5.5210 c          1 RPV       0.959200
@<TRIPOS>BOND
     1     1    15 ar  
     2     1    16 ar  
     3     1    28 1   
     4     2    14 ar  
     5     2    17 ar  
     6     2    29 1   
     7     3     4 2   
     8     3     7 1   
     9     3    23 1   
    10     4    24 1   
    11     4    30 1   
    12     5    25 ar  
    13     5    26 ar  
    14     5    31 1   
    15     6    26 ar  
    16     6    27 ar  
    17     6    32 1   
    18     7    25 ar  
    19     7    27 ar  
    20     8    45 1   
    21     9    45 1   
    22    10    11 1   
    23    10    18 2   
    24    10    45 1   
    25    11    12 2   
    26    11    33 1   
    27    12    13 1   
    28    13    14 1   
    29    13    18 1   
    30    14    15 ar  
    31    15    34 1   
    32    16    17 ar  
    33    16    35 1   
    34    17    36 1   
    35    18    19 1   
    36    19    20 1   
    37    19    37 1   
    38    20    21 2   
    39    20    22 1   
    40    22    23 1   
    41    22    38 1   
    42    22    39 1   
    43    23    40 1   
    44    23    41 1   
    45    24    25 1   
    46    24    42 1   
    47    26    43 1   
    48    27    44 1   
@<TRIPOS>SUBSTRUCTURE
     1 RPV         1 TEMP              0 ****  ****    0 ROOT
