@<TRIPOS>MOLECULE
RPV
   45    48     1     0     0
SMALL
No Charge or Current Charge


@<TRIPOS>ATOM
      1 C10         37.9690    61.0920     2.7650 ca         1 RPV      -0.110000
      2 C13         39.2650    60.4140     5.1660 ca         1 RPV      -0.105500
      3 C20         40.5190    65.3400     8.0250 cc         1 RPV      -0.123400
      4 C21         41.5830    66.1990     8.2960 cd         1 RPV      -0.160100
      5 C24         39.1600    67.3020    10.7310 ca         1 RPV      -0.135000
      6 C26         37.3820    65.7240    10.1330 ca         1 RPV      -0.151000
      7 C28         39.4850    65.7000     8.9530 ca         1 RPV      -0.096800
      8 O01         44.7310    60.7710     6.2500 o          1 RPV      -0.729500
      9 O03         45.3400    58.8650     5.4770 o          1 RPV      -0.729500
     10 C04         43.2690    59.6680     4.8150 cc         1 RPV      -0.258600
     11 C05         42.9060    58.5720     4.0140 cc         1 RPV       0.283900
     12 N06         41.7030    58.6610     3.4750 nd         1 RPV      -0.569800
     13 N07         41.3040    59.9150     3.9160 na         1 RPV       0.188000
     14 C08         39.9740    60.3500     3.9470 ca         1 RPV       0.069800
     15 C09         39.3130    60.6780     2.7460 ca         1 RPV      -0.105500
     16 C11         37.2750    61.1710     3.9850 ca         1 RPV      -0.133000
     17 C12         37.9220    60.8300     5.1850 ca         1 RPV      -0.110000
     18 C14         42.2400    60.5620     4.7480 cd         1 RPV      -0.006400
     19 N15         42.2270    61.7890     5.4020 ns         1 RPV      -0.382100
     20 C16         41.5260    62.9440     5.1150 c          1 RPV       0.595100
     21 O17         40.8550    63.0950     4.1050 o          1 RPV      -0.596100
     22 C18         41.7080    64.0710     6.1350 c3         1 RPV      -0.157400
     23 C19         40.4290    64.2500     6.9850 c3         1 RPV      -0.001200
     24 N22         41.2360    67.0710     9.3580 na         1 RPV      -0.230700
     25 C23         39.9490    66.7280     9.7240 ca         1 RPV      -0.046200
     26 C25         37.8610    66.7890    10.9330 ca         1 RPV      -0.097000
     27 C27         38.1990    65.1660     9.1270 ca         1 RPV      -0.053000
     28 H1          37.4670    61.3510     1.8360 ha         1 RPV       0.100500
     29 H2          39.7560    60.1410     6.0970 ha         1 RPV       0.130000
     30 H3          42.5570    66.2550     7.8140 h4         1 RPV       0.216000
     31 H4          39.5370    68.1200    11.3400 ha         1 RPV       0.106000
     32 H5          36.3800    65.3330    10.2950 ha         1 RPV       0.105000
     33 H7          43.4860    57.6760     3.8330 h4         1 RPV       0.036100
     34 H8          39.8460    60.6160     1.8000 ha         1 RPV       0.130000
     35 H9          36.2360    61.4920     3.9990 ha         1 RPV       0.098000
     36 H10         37.3820    60.8840     6.1280 ha         1 RPV       0.100500
     37 H11         42.9060    61.9080     6.1480 hn         1 RPV       0.375500
     38 H12         42.5420    63.8430     6.8090 hc         1 RPV       0.063200
     39 H13         41.9020    65.0050     5.5960 hc         1 RPV       0.063200
     40 H14         39.5840    64.4620     6.3180 hc         1 RPV       0.058200
     41 H15         40.1960    63.3000     7.4820 hc         1 RPV       0.058200
     42 H16         41.8140    67.8000     9.7670 hn         1 RPV       0.345000
     43 H17         37.2260    67.2140    11.7070 ha         1 RPV       0.101000
     44 H18         37.8410    64.3470     8.5060 ha         1 RPV       0.117000
     45 C02         44.5360    59.7790     5.5620 c          1 RPV       0.748600
@<TRIPOS>BOND
     1     1    15 ar  
     2     1    16 ar  
     3     1    28 1   
     4     2    14 ar  
     5     2    17 ar  
     6     2    29 1   
     7     3     4 2   
     8     3     7 1   
     9     3    23 1   
    10     4    24 1   
    11     4    30 1   
    12     5    25 ar  
    13     5    26 ar  
    14     5    31 1   
    15     6    26 ar  
    16     6    27 ar  
    17     6    32 1   
    18     7    25 ar  
    19     7    27 ar  
    20     8    45 1   
    21     9    45 1   
    22    10    11 1   
    23    10    18 2   
    24    10    45 1   
    25    11    12 2   
    26    11    33 1   
    27    12    13 1   
    28    13    14 1   
    29    13    18 1   
    30    14    15 ar  
    31    15    34 1   
    32    16    17 ar  
    33    16    35 1   
    34    17    36 1   
    35    18    19 1   
    36    19    20 1   
    37    19    37 1   
    38    20    21 2   
    39    20    22 1   
    40    22    23 1   
    41    22    38 1   
    42    22    39 1   
    43    23    40 1   
    44    23    41 1   
    45    24    25 1   
    46    24    42 1   
    47    26    43 1   
    48    27    44 1   
@<TRIPOS>SUBSTRUCTURE
     1 RPV         1 TEMP              0 ****  ****    0 ROOT
