@<TRIPOS>MOLECULE
RPW
   38    40     1     0     0
SMALL
No Charge or Current Charge


@<TRIPOS>ATOM
      1 N1         -63.5280    25.3960    -7.2720 nc         1 RPW      -0.707000
      2 C11        -63.9430    24.7770     1.8150 ca         1 RPW      -0.212000
      3 C12        -63.5410    25.4310     2.9890 ca         1 RPW      -0.035000
      4 O1         -63.6550    21.6150    -5.4110 o          1 RPW      -0.568100
      5 C13        -63.2830    26.8080     2.9140 ca         1 RPW      -0.201000
      6 C14        -63.4410    27.4710     1.6840 ca         1 RPW       0.402300
      7 N3         -65.0290    23.8870    -2.3800 nc         1 RPW      -0.725000
      8 N4         -64.4400    25.0570    -0.5780 nu         1 RPW      -0.894800
      9 S1         -62.0850    23.2050    -7.4190 ss         1 RPW       0.026600
     10 N2         -64.3460    23.7450    -5.8710 ns         1 RPW      -0.465400
     11 S2         -64.3250    22.2710    -0.4280 ss         1 RPW      -0.062400
     12 C1         -63.4290    24.1690    -6.7900 cd         1 RPW       0.546300
     13 C10        -64.0590    25.5270     0.6340 ca         1 RPW       0.614900
     14 C2         -62.5240    25.6340    -8.1770 cc         1 RPW       0.294900
     15 C3         -61.6530    24.5950    -8.3950 cd         1 RPW      -0.257300
     16 C4         -60.4650    24.5580    -9.3200 c3         1 RPW      -0.010800
     17 C5         -64.4390    22.5340    -5.2340 c          1 RPW       0.612100
     18 C6         -65.6010    22.4140    -4.2620 c3         1 RPW      -0.167700
     19 C7         -65.1450    22.6070    -2.8540 cc         1 RPW       0.330300
     20 C8         -64.6300    23.8540    -1.1340 cd         1 RPW       0.719300
     21 C9         -64.8220    21.6050    -1.9730 cd         1 RPW      -0.264000
     22 N5         -63.8260    26.8360     0.5570 nb         1 RPW      -0.734000
     23 H10        -64.1680    23.7190     1.8420 ha         1 RPW       0.131000
     24 H11        -63.4380    24.8890     3.9270 ha         1 RPW       0.121000
     25 H12        -62.9680    27.3570     3.7980 ha         1 RPW       0.127000
     26 H14        -63.9130    29.4380     0.9020 hc         1 RPW       0.055700
     27 H13        -63.2210    29.4560     2.5290 hc         1 RPW       0.055700
     28 H15        -62.1800    29.1370     1.1310 hc         1 RPW       0.055700
     29 H9         -64.5560    25.7930    -1.2570 hn         1 RPW       0.527000
     30 H2         -65.0510    24.4150    -5.6040 hn         1 RPW       0.340500
     31 H1         -62.4850    26.6060    -8.6520 h4         1 RPW       0.038100
     32 H4         -59.5400    24.3580    -8.7660 hc         1 RPW       0.046367
     33 H3         -60.5800    23.7730   -10.0770 hc         1 RPW       0.046367
     34 H5         -60.3390    25.5130    -9.8460 hc         1 RPW       0.046367
     35 H6         -66.3640    23.1680    -4.4880 hc         1 RPW       0.076200
     36 H7         -66.0360    21.4130    -4.3570 hc         1 RPW       0.076200
     37 H8         -64.8420    20.5350    -2.1420 h4         1 RPW       0.163000
     38 C15        -63.1750    28.9570     1.5540 c3         1 RPW      -0.148400
@<TRIPOS>BOND
     1     1    12 2   
     2     1    14 1   
     3     2     3 ar  
     4     2    13 ar  
     5     2    23 1   
     6     3     5 ar  
     7     3    24 1   
     8     4    17 2   
     9     5     6 ar  
    10     5    25 1   
    11     6    22 ar  
    12     6    38 1   
    13     7    19 1   
    14     7    20 2   
    15     8    13 1   
    16     8    20 1   
    17     8    29 1   
    18     9    12 1   
    19     9    15 1   
    20    10    12 1   
    21    10    17 1   
    22    10    30 1   
    23    11    20 1   
    24    11    21 1   
    25    13    22 ar  
    26    14    15 2   
    27    14    31 1   
    28    15    16 1   
    29    16    32 1   
    30    16    33 1   
    31    16    34 1   
    32    17    18 1   
    33    18    19 1   
    34    18    35 1   
    35    18    36 1   
    36    19    21 2   
    37    21    37 1   
    38    26    38 1   
    39    27    38 1   
    40    28    38 1   
@<TRIPOS>SUBSTRUCTURE
     1 RPW         1 TEMP              0 ****  ****    0 ROOT
