@<TRIPOS>MOLECULE
RPW
   38    40     1     0     0
SMALL
abcg2


@<TRIPOS>ATOM
      1 N1         -64.0630    24.7370    -8.1460 nc         1 RPW      -0.707000
      2 C11        -64.3180    24.9110     1.8060 ca         1 RPW      -0.212000
      3 C12        -63.9790    25.4370     3.0450 ca         1 RPW      -0.035000
      4 O1         -63.0290    22.3850    -4.9320 o          1 RPW      -0.568100
      5 C13        -63.4110    26.6980     3.1320 ca         1 RPW      -0.201000
      6 C14        -63.2070    27.4200     1.9540 ca         1 RPW       0.402300
      7 N3         -64.8520    23.9650    -2.4510 nc         1 RPW      -0.725000
      8 N4         -64.3280    25.3030    -0.6260 nu         1 RPW      -0.894800
      9 S1         -61.9350    23.6820    -7.1510 ss         1 RPW       0.026600
     10 N2         -64.5200    23.5200    -6.2000 ns         1 RPW      -0.465400
     11 S2         -64.6220    22.5630    -0.3030 ss         1 RPW      -0.062400
     12 C1         -63.6460    23.9990    -7.1600 cd         1 RPW       0.546300
     13 C10        -64.0540    25.6900     0.6790 ca         1 RPW       0.614900
     14 C2         -63.0110    25.0930    -8.9620 cc         1 RPW       0.294900
     15 C3         -61.7830    24.6310    -8.6060 cd         1 RPW      -0.257300
     16 C4         -60.4700    24.8450    -9.2820 c3         1 RPW      -0.010800
     17 C5         -64.1830    22.7380    -5.1370 c          1 RPW       0.612100
     18 C6         -65.3380    22.3290    -4.2400 c3         1 RPW      -0.167700
     19 C7         -65.0520    22.6490    -2.8060 cc         1 RPW       0.330300
     20 C8         -64.6100    24.0830    -1.1700 cd         1 RPW       0.719300
     21 C9         -64.9670    21.7500    -1.7940 cd         1 RPW      -0.264000
     22 N5         -63.5220    26.9180     0.7580 nb         1 RPW      -0.734000
     23 H10        -64.7990    23.9480     1.7430 ha         1 RPW       0.131000
     24 H11        -64.1710    24.8580     3.9400 ha         1 RPW       0.121000
     25 H12        -63.1400    27.1260     4.0880 ha         1 RPW       0.127000
     26 H14        -62.6270    29.2450     0.9960 hc         1 RPW       0.055700
     27 H13        -63.1520    29.4410     2.6820 hc         1 RPW       0.055700
     28 H15        -61.5710    28.7550     2.3320 hc         1 RPW       0.055700
     29 H9         -64.1940    26.0380    -1.3080 hn         1 RPW       0.527000
     30 H2         -65.4840    23.7960    -6.3240 hn         1 RPW       0.340500
     31 H1         -63.2020    25.7110    -9.8280 h4         1 RPW       0.038100
     32 H4         -59.7530    25.3410    -8.6230 hc         1 RPW       0.046367
     33 H3         -60.0230    23.9000    -9.6020 hc         1 RPW       0.046367
     34 H5         -60.6130    25.4700   -10.1640 hc         1 RPW       0.046367
     35 H6         -66.2610    22.8180    -4.5570 hc         1 RPW       0.076200
     36 H7         -65.4730    21.2520    -4.3570 hc         1 RPW       0.076200
     37 H8         -65.0950    20.6810    -1.8240 h4         1 RPW       0.163000
     38 C15        -62.6080    28.7970     1.9880 c3         1 RPW      -0.148400
@<TRIPOS>BOND
     1     1    12 2   
     2     1    14 1   
     3     2     3 ar  
     4     2    13 ar  
     5     2    23 1   
     6     3     5 ar  
     7     3    24 1   
     8     4    17 2   
     9     5     6 ar  
    10     5    25 1   
    11     6    22 ar  
    12     6    38 1   
    13     7    19 1   
    14     7    20 2   
    15     8    13 1   
    16     8    20 1   
    17     8    29 1   
    18     9    12 1   
    19     9    15 1   
    20    10    12 1   
    21    10    17 1   
    22    10    30 1   
    23    11    20 1   
    24    11    21 1   
    25    13    22 ar  
    26    14    15 2   
    27    14    31 1   
    28    15    16 1   
    29    16    32 1   
    30    16    33 1   
    31    16    34 1   
    32    17    18 1   
    33    18    19 1   
    34    18    35 1   
    35    18    36 1   
    36    19    21 2   
    37    21    37 1   
    38    26    38 1   
    39    27    38 1   
    40    28    38 1   
@<TRIPOS>SUBSTRUCTURE
     1 RPW         1 TEMP              0 ****  ****    0 ROOT
