@<TRIPOS>MOLECULE
RPZ
   54    58     1     0     0
SMALL
abcg2


@<TRIPOS>ATOM
      1 N1         -21.7040     6.6690    30.8020 n3         1 RPZ      -0.742600
      2 N3         -16.7210     3.5620    26.3920 nb         1 RPZ      -0.656000
      3 C4         -22.3840     4.5210    31.7380 ca         1 RPZ      -0.059300
      4 C5         -22.6690     3.7390    32.8580 ca         1 RPZ      -0.100000
      5 C6         -22.5820     2.3560    32.8190 ca         1 RPZ      -0.091000
      6 C7         -22.1900     1.7550    31.6300 ca         1 RPZ       0.125000
      7 C8         -21.9100     2.5060    30.5030 ca         1 RPZ      -0.093000
      8 C10        -21.7040     4.7130    29.3010 c5         1 RPZ      -0.082700
      9 C13        -20.1920     4.7040    29.0080 c          1 RPZ       0.574000
     10 C15        -17.9540     3.5650    26.9580 ca         1 RPZ       0.342900
     11 C17        -16.9880     5.9140    25.9350 ca         1 RPZ      -0.098000
     12 C20        -18.4700     8.2750    26.0590 ca         1 RPZ      -0.085000
     13 C21        -19.0080     7.1270    26.5830 ca         1 RPZ      -0.105000
     14 C22        -18.2800     5.9170    26.5310 ca         1 RPZ      -0.010000
     15 O1         -19.2910     4.8310    29.8280 o          1 RPZ      -0.526000
     16 N2         -20.0190     4.5870    27.6700 n          1 RPZ      -0.252400
     17 C14        -18.7460     4.6800    27.0480 ca         1 RPZ      -0.084000
     18 C19        -17.1880     8.2730    25.4660 ca         1 RPZ      -0.110000
     19 C18        -16.4580     7.1140    25.4060 ca         1 RPZ      -0.080000
     20 C16        -16.2690     4.6950    25.9040 ca         1 RPZ       0.366900
     21 C12        -21.2680     4.4860    26.9080 c5         1 RPZ       0.106000
     22 C11        -22.3090     4.1730    27.9890 c5         1 RPZ      -0.088400
     23 C9         -22.0210     3.8980    30.5410 ca         1 RPZ      -0.039300
     24 CL         -22.0420     0.0090    31.5560 cl         1 RPZ      -0.209000
     25 C3         -22.4680     6.0210    31.8540 c6         1 RPZ       0.225100
     26 C23        -22.1280     6.1830    29.5030 c6         1 RPZ       0.182800
     27 C2         -21.6630     8.1140    30.8980 c3         1 RPZ       0.089800
     28 C1         -20.3700     8.7320    30.3710 c          1 RPZ       0.582100
     29 O          -20.2990     9.9490    30.1690 o          1 RPZ      -0.632100
     30 N          -19.3520     7.8850    30.1920 ns         1 RPZ      -0.492900
     31 C          -18.0370     8.3070    29.7530 c3         1 RPZ       0.094300
     32 H2         -22.9530     4.2240    33.7850 ha         1 RPZ       0.119000
     33 H3         -22.8000     1.7580    33.6930 ha         1 RPZ       0.133000
     34 H4         -21.5970     2.0040    29.5970 ha         1 RPZ       0.129000
     35 H6         -19.0300     9.2000    26.1080 ha         1 RPZ       0.123000
     36 H7         -19.9830     7.1490    27.0470 ha         1 RPZ       0.119000
     37 H8         -16.7850     9.1930    25.0630 ha         1 RPZ       0.120000
     38 H9         -15.4720     7.0990    24.9590 ha         1 RPZ       0.120000
     39 H10        -15.2810     4.6840    25.4520 h4         1 RPZ       0.023100
     40 H11        -21.4720     5.4260    26.3900 h1         1 RPZ       0.053700
     41 H12        -21.1860     3.6950    26.1640 h1         1 RPZ       0.053700
     42 H13        -23.2720     4.6330    27.7730 hc         1 RPZ       0.065200
     43 H14        -22.4590     3.0980    28.0490 hc         1 RPZ       0.065200
     44 H15        -22.0720     6.3310    32.8220 h1         1 RPZ       0.047700
     45 H16        -23.5290     6.3280    31.8250 h1         1 RPZ       0.047700
     46 H17        -21.6920     6.8050    28.7230 h1         1 RPZ       0.044200
     47 H18        -23.2230     6.2440    29.3930 h1         1 RPZ       0.044200
     48 H19        -21.7270     8.4010    31.9500 h1         1 RPZ       0.064200
     49 H20        -22.4990     8.6080    30.3850 h1         1 RPZ       0.064200
     50 H21        -19.5210     6.9060    30.3890 hn         1 RPZ       0.357500
     51 H22        -17.4910     7.4330    29.4060 h1         1 RPZ       0.041033
     52 H23        -18.1220     9.0180    28.9320 h1         1 RPZ       0.041033
     53 H24        -17.4770     8.7800    30.5640 h1         1 RPZ       0.041033
     54 H5         -18.3110     2.6220    27.3560 h4         1 RPZ       0.029100
@<TRIPOS>BOND
     1     1    25 1   
     2     1    26 1   
     3     1    27 1   
     4     2    10 ar  
     5     2    20 ar  
     6     3     4 ar  
     7     3    23 ar  
     8     3    25 1   
     9     4     5 ar  
    10     4    32 1   
    11     5     6 ar  
    12     5    33 1   
    13     6     7 ar  
    14     6    24 1   
    15     7    23 ar  
    16     7    34 1   
    17     8     9 1   
    18     8    22 1   
    19     8    23 1   
    20     8    26 1   
    21     9    15 2   
    22     9    16 1   
    23    10    17 ar  
    24    10    54 1   
    25    11    14 ar  
    26    11    19 ar  
    27    11    20 ar  
    28    12    13 ar  
    29    12    18 ar  
    30    12    35 1   
    31    13    14 ar  
    32    13    36 1   
    33    14    17 ar  
    34    16    17 1   
    35    16    21 1   
    36    18    19 ar  
    37    18    37 1   
    38    19    38 1   
    39    20    39 1   
    40    21    22 1   
    41    21    40 1   
    42    21    41 1   
    43    22    42 1   
    44    22    43 1   
    45    25    44 1   
    46    25    45 1   
    47    26    46 1   
    48    26    47 1   
    49    27    28 1   
    50    27    48 1   
    51    27    49 1   
    52    28    29 2   
    53    28    30 1   
    54    30    31 1   
    55    30    50 1   
    56    31    51 1   
    57    31    52 1   
    58    31    53 1   
@<TRIPOS>SUBSTRUCTURE
     1 RPZ         1 TEMP              0 ****  ****    0 ROOT
