@<TRIPOS>MOLECULE
RPZ
   54    58     1     0     0
SMALL
No Charge or Current Charge


@<TRIPOS>ATOM
      1 N1         -21.6110     6.5820    31.0630 n3         1 RPZ      -0.742600
      2 N3         -16.5550     3.6450    26.8040 nb         1 RPZ      -0.656000
      3 C4         -22.5000     4.3490    31.7960 ca         1 RPZ      -0.059300
      4 C5         -22.9050     3.5110    32.8540 ca         1 RPZ      -0.100000
      5 C6         -22.8810     2.1170    32.7050 ca         1 RPZ      -0.091000
      6 C7         -22.4320     1.5570    31.5020 ca         1 RPZ       0.125000
      7 C8         -22.0300     2.3840    30.4420 ca         1 RPZ      -0.093000
      8 C10        -21.6320     4.7290    29.4070 c5         1 RPZ      -0.082700
      9 C13        -20.1250     4.6060    29.1370 c          1 RPZ       0.574000
     10 C15        -17.8040     3.7140    27.3170 ca         1 RPZ       0.342900
     11 C17        -16.8920     5.8550    25.8640 ca         1 RPZ      -0.098000
     12 C20        -18.3880     8.2100    25.5500 ca         1 RPZ      -0.085000
     13 C21        -18.9330     7.1220    26.2530 ca         1 RPZ      -0.105000
     14 C22        -18.1990     5.9230    26.3980 ca         1 RPZ      -0.010000
     15 O1         -19.2120     4.3820    29.9220 o          1 RPZ      -0.526000
     16 N2         -19.9770     4.7850    27.7530 n          1 RPZ      -0.252400
     17 C14        -18.6990     4.7850    27.0830 ca         1 RPZ      -0.084000
     18 C19        -17.1040     8.1190    24.9910 ca         1 RPZ      -0.110000
     19 C18        -16.3530     6.9440    25.1510 ca         1 RPZ      -0.080000
     20 C16        -16.1220     4.6950    26.0730 ca         1 RPZ       0.366900
     21 C12        -21.2590     4.8640    27.0140 c5         1 RPZ       0.106000
     22 C11        -22.2520     4.2510    28.0450 c5         1 RPZ      -0.088400
     23 C9         -22.0900     3.7950    30.5550 ca         1 RPZ      -0.039300
     24 Cl         -22.3580    -0.1910    31.3240 cl         1 RPZ      -0.209000
     25 C3         -22.4840     5.8650    32.0220 c6         1 RPZ       0.225100
     26 C23        -21.9890     6.2170    29.6810 c6         1 RPZ       0.182800
     27 C2         -21.5580     8.0630    31.2980 c3         1 RPZ       0.089800
     28 C1         -20.4700     8.8430    30.5070 c          1 RPZ       0.582100
     29 O          -20.6010    10.0040    30.1360 o          1 RPZ      -0.632100
     30 N          -19.3400     8.1060    30.2330 ns         1 RPZ      -0.492900
     31 C          -18.1950     8.5740    29.4510 c3         1 RPZ       0.094300
     32 H2         -23.2280     3.9430    33.7990 ha         1 RPZ       0.119000
     33 H3         -23.1890     1.4720    33.5240 ha         1 RPZ       0.133000
     34 H4         -21.6540     1.9100    29.5410 ha         1 RPZ       0.129000
     35 H6         -18.9620     9.1280    25.4420 ha         1 RPZ       0.123000
     36 H7         -19.9150     7.2390    26.6940 ha         1 RPZ       0.119000
     37 H8         -16.6850     8.9630    24.4470 ha         1 RPZ       0.120000
     38 H9         -15.3490     6.8870    24.7350 ha         1 RPZ       0.120000
     39 H10        -15.1110     4.6180    25.6740 h4         1 RPZ       0.023100
     40 H11        -21.5330     5.8990    26.7770 h1         1 RPZ       0.053700
     41 H12        -21.2310     4.2920    26.0770 h1         1 RPZ       0.053700
     42 H13        -23.2820     4.5960    27.8930 hc         1 RPZ       0.065200
     43 H14        -22.2660     3.1650    27.9200 hc         1 RPZ       0.065200
     44 H15        -22.1460     6.0610    33.0500 h1         1 RPZ       0.047700
     45 H16        -23.5170     6.2360    31.9500 h1         1 RPZ       0.047700
     46 H17        -21.4750     6.8580    28.9500 h1         1 RPZ       0.044200
     47 H18        -23.0680     6.3740    29.5330 h1         1 RPZ       0.044200
     48 H19        -21.3480     8.2560    32.3580 h1         1 RPZ       0.064200
     49 H20        -22.5280     8.5240    31.0680 h1         1 RPZ       0.064200
     50 H21        -19.3610     7.1470    30.5670 hn         1 RPZ       0.357500
     51 H22        -17.5530     7.7210    29.1970 h1         1 RPZ       0.041033
     52 H23        -18.5460     9.0480    28.5250 h1         1 RPZ       0.041033
     53 H24        -17.6210     9.3010    30.0390 h1         1 RPZ       0.041033
     54 H5         -18.1190     2.8530    27.9060 h4         1 RPZ       0.029100
@<TRIPOS>BOND
     1     1    25 1   
     2     1    26 1   
     3     1    27 1   
     4     2    10 ar  
     5     2    20 ar  
     6     3     4 ar  
     7     3    23 ar  
     8     3    25 1   
     9     4     5 ar  
    10     4    32 1   
    11     5     6 ar  
    12     5    33 1   
    13     6     7 ar  
    14     6    24 1   
    15     7    23 ar  
    16     7    34 1   
    17     8     9 1   
    18     8    22 1   
    19     8    23 1   
    20     8    26 1   
    21     9    15 2   
    22     9    16 1   
    23    10    17 ar  
    24    10    54 1   
    25    11    14 ar  
    26    11    19 ar  
    27    11    20 ar  
    28    12    13 ar  
    29    12    18 ar  
    30    12    35 1   
    31    13    14 ar  
    32    13    36 1   
    33    14    17 ar  
    34    16    17 1   
    35    16    21 1   
    36    18    19 ar  
    37    18    37 1   
    38    19    38 1   
    39    20    39 1   
    40    21    22 1   
    41    21    40 1   
    42    21    41 1   
    43    22    42 1   
    44    22    43 1   
    45    25    44 1   
    46    25    45 1   
    47    26    46 1   
    48    26    47 1   
    49    27    28 1   
    50    27    48 1   
    51    27    49 1   
    52    28    29 2   
    53    28    30 1   
    54    30    31 1   
    55    30    50 1   
    56    31    51 1   
    57    31    52 1   
    58    31    53 1   
@<TRIPOS>SUBSTRUCTURE
     1 RPZ         1 TEMP              0 ****  ****    0 ROOT
