@<TRIPOS>MOLECULE
RQ0
  147   147     1     0     0
SMALL
bcc


@<TRIPOS>ATOM
      1 C05        170.6010   146.0560   125.2010 c3         1 RQ0      -0.042200
      2 C06        166.8700   147.8220   127.5470 c3         1 RQ0      -0.041200
      3 C07        162.3070   148.2480   129.3530 ce         1 RQ0      -0.130000
      4 C08        173.1260   142.4790   123.7730 c3         1 RQ0      -0.037200
      5 C09        167.0820   147.5020   126.0570 c3         1 RQ0      -0.036200
      6 C10        171.0300   145.7710   123.7520 c3         1 RQ0      -0.033200
      7 C11        163.3350   148.8280   128.7030 cf         1 RQ0      -0.117000
      8 C12        173.6290   142.3500   125.2230 c3         1 RQ0      -0.033200
      9 C13        169.4780   147.0480   125.3340 c2         1 RQ0      -0.111400
     10 C14        158.3420   149.7350   131.1130 ce         1 RQ0      -0.121000
     11 C15        170.8480   142.2140   127.9560 c3         1 RQ0      -0.037200
     12 C16        165.6520   148.6660   127.7950 c2         1 RQ0      -0.095400
     13 C17        171.9420   143.4100   123.6460 c2         1 RQ0      -0.104400
     14 C18        158.7800   148.5100   130.7640 cf         1 RQ0      -0.127000
     15 C19        161.0180   148.8600   129.6290 ce         1 RQ0      -0.064200
     16 C20        169.5970   143.0240   127.5740 c3         1 RQ0      -0.039200
     17 C21        172.0680   142.6850   127.2070 c2         1 RQ0      -0.113400
     18 C22        168.3000   146.6620   125.8340 c2         1 RQ0      -0.173200
     19 C23        156.9730   150.0710   131.4860 ce         1 RQ0      -0.083200
     20 C24        172.1110   144.7320   123.7180 c2         1 RQ0      -0.176200
     21 C25        164.5870   148.1550   128.4390 cf         1 RQ0      -0.141000
     22 C26        172.5330   141.9810   126.1720 c2         1 RQ0      -0.166200
     23 C27        160.1180   148.1430   130.3450 cf         1 RQ0      -0.129000
     24 C28        155.3750   151.9460   132.1490 c3         1 RQ0      -0.038200
     25 C29        154.7870   152.7820   131.0070 c3         1 RQ0      -0.041200
     26 C30        166.4680   142.3400   129.8030 c3         1 RQ0      -0.035200
     27 C31        167.6920   143.0250   129.2560 c2         1 RQ0      -0.112400
     28 C32        168.3540   142.5030   128.2210 c2         1 RQ0      -0.172200
     29 C33        156.7010   151.3510   131.7980 c2         1 RQ0      -0.153200
     30 C34        166.7510   141.4980   131.0600 c3         1 RQ0      -0.033200
     31 C35        155.4870   154.0640   130.6250 c2         1 RQ0      -0.082400
     32 C36        169.7930   148.4440   124.8850 c3         1 RQ0      -0.054900
     33 C37        165.7220   150.0640   127.2570 c3         1 RQ0      -0.057900
     34 C38        170.6100   142.7400   123.4920 c3         1 RQ0      -0.055900
     35 C39        160.7450   150.2280   129.0790 c3         1 RQ0      -0.058900
     36 C40        172.6380   143.9870   127.6880 c3         1 RQ0      -0.053900
     37 C41        157.0970   155.9630   131.1870 c3         1 RQ0       0.000000
     38 C42        156.3690   154.6670   131.4250 c2         1 RQ0      -0.190200
     39 C43        167.6650   140.3400   130.7860 c2         1 RQ0      -0.166200
     40 C44        155.9530   148.9710   131.4700 c3         1 RQ0      -0.053900
     41 C45        167.3020   139.1140   130.4000 c2         1 RQ0      -0.112400
     42 C46        156.6490   156.9820   132.1970 cc         1 RQ0      -0.102400
     43 C47        168.3310   138.0450   130.1480 c3         1 RQ0      -0.034200
     44 C48        168.0870   144.2830   129.9730 c3         1 RQ0      -0.054900
     45 C49        155.0590   154.5850   129.2850 c3         1 RQ0      -0.061900
     46 C50        157.1430   157.0490   133.4450 cd         1 RQ0      -0.158400
     47 C51        168.3070   137.4710   128.7230 c3         1 RQ0      -0.034200
     48 C52        155.5390   157.8960   131.7620 c          1 RQ0       0.568500
     49 C53        165.8780   138.6950   130.1820 c3         1 RQ0      -0.054900
     50 C54        156.5960   158.0370   134.4000 c          1 RQ0       0.562500
     51 C55        155.0170   158.8650   132.7010 cc         1 RQ0      -0.144100
     52 C56        155.5140   158.9720   133.9590 cd         1 RQ0       0.112800
     53 C57        158.2140   156.1650   133.9990 c3         1 RQ0      -0.049900
     54 C58        168.6670   138.4830   127.6810 c2         1 RQ0      -0.164200
     55 C59        167.9770   138.8440   126.5960 c2         1 RQ0      -0.117400
     56 C60        166.6300   138.3050   126.2130 c3         1 RQ0      -0.055900
     57 C61        168.5250   139.8520   125.6270 c3         1 RQ0      -0.055900
     58 C62        154.4080   160.8130   131.5550 c3         1 RQ0       0.115700
     59 N04        155.1010   159.8620   134.8690 nv         1 RQ0      -0.835600
     60 O01        153.9980   159.6750   132.3050 os         1 RQ0      -0.312900
     61 O02        155.0910   157.8150   130.6290 o          1 RQ0      -0.512100
     62 O03        157.0050   158.1080   135.5390 o          1 RQ0      -0.510100
     63 H1         170.3090   145.1100   125.6600 hc         1 RQ0       0.046700
     64 H2         171.4750   146.4130   125.7590 hc         1 RQ0       0.046700
     65 H3         166.8040   146.8860   128.1090 hc         1 RQ0       0.047700
     66 H4         167.7580   148.3480   127.9150 hc         1 RQ0       0.047700
     67 H5         162.4360   147.2310   129.7150 ha         1 RQ0       0.118000
     68 H6         173.9570   142.8270   123.1530 hc         1 RQ0       0.043200
     69 H7         172.8580   141.4880   123.3950 hc         1 RQ0       0.043200
     70 H8         167.1330   148.4290   125.4840 hc         1 RQ0       0.046200
     71 H9         166.2010   146.9660   125.6920 hc         1 RQ0       0.046200
     72 H10        171.3910   146.6890   123.2820 hc         1 RQ0       0.044200
     73 H11        170.1540   145.4570   123.1790 hc         1 RQ0       0.044200
     74 H12        163.2260   149.8460   128.3490 ha         1 RQ0       0.122000
     75 H13        174.4150   141.5880   125.2440 hc         1 RQ0       0.044200
     76 H14        174.1010   143.2880   125.5140 hc         1 RQ0       0.044200
     77 H15        159.0470   150.5600   131.1410 ha         1 RQ0       0.122000
     78 H16        170.6660   141.1560   127.7480 hc         1 RQ0       0.045200
     79 H17        171.0030   142.3000   129.0370 hc         1 RQ0       0.045200
     80 H18        158.0870   147.6750   130.8290 ha         1 RQ0       0.121000
     81 H19        169.7530   144.0770   127.8110 hc         1 RQ0       0.044200
     82 H20        169.4780   142.9710   126.4860 hc         1 RQ0       0.044200
     83 H21        168.2050   145.6250   126.1510 ha         1 RQ0       0.119000
     84 H22        173.1260   145.1050   123.8420 ha         1 RQ0       0.115000
     85 H23        164.6570   147.1280   128.7910 ha         1 RQ0       0.119000
     86 H24        172.0300   141.0420   125.9450 ha         1 RQ0       0.113000
     87 H25        160.4080   147.1290   130.6090 ha         1 RQ0       0.120000
     88 H26        155.4740   152.5600   133.0500 hc         1 RQ0       0.046700
     89 H27        154.6500   151.1720   132.4010 hc         1 RQ0       0.046700
     90 H28        153.7480   153.0320   131.2510 hc         1 RQ0       0.049700
     91 H29        154.7230   152.1470   130.1180 hc         1 RQ0       0.049700
     92 H30        165.7110   143.0920   130.0490 hc         1 RQ0       0.043700
     93 H31        166.0290   141.6880   129.0430 hc         1 RQ0       0.043700
     94 H32        167.9710   141.5760   127.7990 ha         1 RQ0       0.125000
     95 H33        157.5300   152.0530   131.7580 ha         1 RQ0       0.119000
     96 H34        165.7960   141.1540   131.4630 hc         1 RQ0       0.042200
     97 H35        167.1910   142.1320   131.8350 hc         1 RQ0       0.042200
     98 H36        169.9860   148.4840   123.8110 hc         1 RQ0       0.038367
     99 H37        169.0000   149.1570   125.1020 hc         1 RQ0       0.038367
    100 H38        170.7020   148.8000   125.3750 hc         1 RQ0       0.038367
    101 H39        164.9300   150.7130   127.6270 hc         1 RQ0       0.040700
    102 H40        166.6770   150.5240   127.5220 hc         1 RQ0       0.040700
    103 H41        165.6670   150.0750   126.1660 hc         1 RQ0       0.040700
    104 H42        169.7740   143.4350   123.4390 hc         1 RQ0       0.040033
    105 H43        170.5920   142.1250   122.5890 hc         1 RQ0       0.040033
    106 H44        170.4220   142.0610   124.3290 hc         1 RQ0       0.040033
    107 H45        159.6780   150.4320   129.0160 hc         1 RQ0       0.043367
    108 H46        161.1900   151.0110   129.6980 hc         1 RQ0       0.043367
    109 H47        161.1610   150.3400   128.0770 hc         1 RQ0       0.043367
    110 H48        172.9270   143.9060   128.7400 hc         1 RQ0       0.038700
    111 H49        173.5130   144.3130   127.1300 hc         1 RQ0       0.038700
    112 H50        171.8990   144.7890   127.6310 hc         1 RQ0       0.038700
    113 H51        158.1720   155.7970   131.2830 hc         1 RQ0       0.065200
    114 H52        156.9320   156.3390   130.1810 hc         1 RQ0       0.065200
    115 H53        156.6040   154.2080   132.3800 ha         1 RQ0       0.117000
    116 H54        168.7290   140.5410   130.8830 ha         1 RQ0       0.119000
    117 H55        155.8900   148.5120   130.4820 hc         1 RQ0       0.040700
    118 H56        156.2210   148.1760   132.1690 hc         1 RQ0       0.040700
    119 H57        154.9570   149.3190   131.7340 hc         1 RQ0       0.040700
    120 H58        168.1630   137.2180   130.8460 hc         1 RQ0       0.042700
    121 H59        169.3300   138.4350   130.3620 hc         1 RQ0       0.042700
    122 H60        167.3040   145.0410   129.8740 hc         1 RQ0       0.038033
    123 H61        168.2030   144.1020   131.0440 hc         1 RQ0       0.038033
    124 H62        169.0170   144.7190   129.6140 hc         1 RQ0       0.038033
    125 H63        155.4600   155.5660   129.0480 hc         1 RQ0       0.045700
    126 H64        155.3640   153.8920   128.4970 hc         1 RQ0       0.045700
    127 H65        153.9690   154.6510   129.2340 hc         1 RQ0       0.045700
    128 H66        167.3400   137.0090   128.5210 hc         1 RQ0       0.043700
    129 H67        169.0360   136.6550   128.6860 hc         1 RQ0       0.043700
    130 H68        165.1570   139.4090   130.5760 hc         1 RQ0       0.037700
    131 H69        165.6660   138.5790   129.1160 hc         1 RQ0       0.037700
    132 H70        165.6800   137.7260   130.6450 hc         1 RQ0       0.037700
    133 H71        157.8230   155.5510   134.8120 hc         1 RQ0       0.053700
    134 H72        158.6270   155.4940   133.2510 hc         1 RQ0       0.053700
    135 H73        159.0350   156.7520   134.4110 hc         1 RQ0       0.053700
    136 H74        169.6310   138.9640   127.8400 ha         1 RQ0       0.114000
    137 H75        166.2170   137.5970   126.9280 hc         1 RQ0       0.038033
    138 H76        165.9120   139.1220   126.1030 hc         1 RQ0       0.038033
    139 H77        166.6790   137.8060   125.2410 hc         1 RQ0       0.038033
    140 H78        167.8680   140.7230   125.5500 hc         1 RQ0       0.038033
    141 H79        169.5180   140.2020   125.9100 hc         1 RQ0       0.038033
    142 H80        168.5930   139.4270   124.6220 hc         1 RQ0       0.038033
    143 H81        153.5160   161.4040   131.3550 h1         1 RQ0       0.035700
    144 H82        155.1170   161.4290   132.1130 h1         1 RQ0       0.035700
    145 H83        154.8610   160.5320   130.6020 h1         1 RQ0       0.035700
    146 H84        155.4210   159.7880   135.8190 hn         1 RQ0       0.446800
    147 H85        154.2790   160.4170   134.6990 hn         1 RQ0       0.446800
@<TRIPOS>BOND
     1     1     6 1   
     2     1     9 1   
     3     1    63 1   
     4     1    64 1   
     5     2     5 1   
     6     2    12 1   
     7     2    65 1   
     8     2    66 1   
     9     3     7 2   
    10     3    15 1   
    11     3    67 1   
    12     4     8 1   
    13     4    13 1   
    14     4    68 1   
    15     4    69 1   
    16     5    18 1   
    17     5    70 1   
    18     5    71 1   
    19     6    20 1   
    20     6    72 1   
    21     6    73 1   
    22     7    21 1   
    23     7    74 1   
    24     8    22 1   
    25     8    75 1   
    26     8    76 1   
    27     9    18 2   
    28     9    32 1   
    29    10    14 2   
    30    10    19 1   
    31    10    77 1   
    32    11    16 1   
    33    11    17 1   
    34    11    78 1   
    35    11    79 1   
    36    12    21 2   
    37    12    33 1   
    38    13    20 2   
    39    13    34 1   
    40    14    23 1   
    41    14    80 1   
    42    15    23 2   
    43    15    35 1   
    44    16    28 1   
    45    16    81 1   
    46    16    82 1   
    47    17    22 2   
    48    17    36 1   
    49    18    83 1   
    50    19    29 2   
    51    19    40 1   
    52    20    84 1   
    53    21    85 1   
    54    22    86 1   
    55    23    87 1   
    56    24    25 1   
    57    24    29 1   
    58    24    88 1   
    59    24    89 1   
    60    25    31 1   
    61    25    90 1   
    62    25    91 1   
    63    26    27 1   
    64    26    30 1   
    65    26    92 1   
    66    26    93 1   
    67    27    28 2   
    68    27    44 1   
    69    28    94 1   
    70    29    95 1   
    71    30    39 1   
    72    30    96 1   
    73    30    97 1   
    74    31    38 2   
    75    31    45 1   
    76    32    98 1   
    77    32    99 1   
    78    32   100 1   
    79    33   101 1   
    80    33   102 1   
    81    33   103 1   
    82    34   104 1   
    83    34   105 1   
    84    34   106 1   
    85    35   107 1   
    86    35   108 1   
    87    35   109 1   
    88    36   110 1   
    89    36   111 1   
    90    36   112 1   
    91    37    38 1   
    92    37    42 1   
    93    37   113 1   
    94    37   114 1   
    95    38   115 1   
    96    39    41 2   
    97    39   116 1   
    98    40   117 1   
    99    40   118 1   
   100    40   119 1   
   101    41    43 1   
   102    41    49 1   
   103    42    46 2   
   104    42    48 1   
   105    43    47 1   
   106    43   120 1   
   107    43   121 1   
   108    44   122 1   
   109    44   123 1   
   110    44   124 1   
   111    45   125 1   
   112    45   126 1   
   113    45   127 1   
   114    46    50 1   
   115    46    53 1   
   116    47    54 1   
   117    47   128 1   
   118    47   129 1   
   119    48    51 1   
   120    48    61 2   
   121    49   130 1   
   122    49   131 1   
   123    49   132 1   
   124    50    52 1   
   125    50    62 2   
   126    51    52 2   
   127    51    60 1   
   128    52    59 1   
   129    53   133 1   
   130    53   134 1   
   131    53   135 1   
   132    54    55 2   
   133    54   136 1   
   134    55    56 1   
   135    55    57 1   
   136    56   137 1   
   137    56   138 1   
   138    56   139 1   
   139    57   140 1   
   140    57   141 1   
   141    57   142 1   
   142    58    60 1   
   143    58   143 1   
   144    58   144 1   
   145    58   145 1   
   146    59   146 1   
   147    59   147 1   
@<TRIPOS>SUBSTRUCTURE
     1 RQ0         1 TEMP              0 ****  ****    0 ROOT
