@<TRIPOS>MOLECULE
RQ0
  147   147     1     0     0
SMALL
No Charge or Current Charge


@<TRIPOS>ATOM
      1 C05        171.1340   146.2690   125.6820 c3         1 RQ0      -0.042200
      2 C06        167.2410   148.0080   127.7080 c3         1 RQ0      -0.041200
      3 C07        162.4400   148.0940   129.1230 ce         1 RQ0      -0.180000
      4 C08        173.0640   142.3980   123.9870 c3         1 RQ0      -0.037200
      5 C09        167.4660   147.6520   126.2240 c3         1 RQ0      -0.036200
      6 C10        171.7030   146.1050   124.2570 c3         1 RQ0      -0.033200
      7 C11        163.5420   148.7710   128.6890 cf         1 RQ0      -0.167000
      8 C12        173.4640   141.9910   125.4270 c3         1 RQ0      -0.033200
      9 C13        169.9710   147.2430   125.7870 c2         1 RQ0      -0.111400
     10 C14        158.4310   149.4360   131.0420 ce         1 RQ0      -0.171000
     11 C15        170.6310   142.3190   128.1920 c3         1 RQ0      -0.037200
     12 C16        165.9400   148.7590   127.9510 c2         1 RQ0      -0.095400
     13 C17        172.1240   143.5950   123.9470 c2         1 RQ0      -0.104400
     14 C18        158.8560   148.2220   130.5820 cf         1 RQ0      -0.177000
     15 C19        161.1240   148.6620   129.4790 ce         1 RQ0      -0.064200
     16 C20        169.4940   143.2770   127.7740 c3         1 RQ0      -0.039200
     17 C21        171.9210   142.5760   127.4250 c2         1 RQ0      -0.113400
     18 C22        168.7180   146.8160   126.0360 c2         1 RQ0      -0.223200
     19 C23        157.0820   149.7740   131.5360 ce         1 RQ0      -0.083200
     20 C24        172.5560   144.8520   124.1640 c2         1 RQ0      -0.226200
     21 C25        164.8200   148.1320   128.3870 cf         1 RQ0      -0.191000
     22 C26        172.2640   141.8330   126.3510 c2         1 RQ0      -0.216200
     23 C27        160.2050   147.8810   130.1270 cf         1 RQ0      -0.179000
     24 C28        155.5400   151.5710   132.5750 c3         1 RQ0      -0.038200
     25 C29        154.5530   152.0320   131.4770 c3         1 RQ0      -0.041200
     26 C30        166.2870   143.0970   130.0870 c3         1 RQ0      -0.035200
     27 C31        167.6480   143.5180   129.5530 c2         1 RQ0      -0.112400
     28 C32        168.1770   142.9520   128.4520 c2         1 RQ0      -0.222200
     29 C33        156.8430   151.0140   132.0290 c2         1 RQ0      -0.203200
     30 C34        166.3810   142.0260   131.1950 c3         1 RQ0      -0.033200
     31 C35        155.0730   153.1960   130.6450 c2         1 RQ0      -0.082400
     32 C36        170.3960   148.6990   125.6490 c3         1 RQ0      -0.054900
     33 C37        166.0450   150.2550   127.6880 c3         1 RQ0      -0.057900
     34 C38        170.6700   143.1980   123.7060 c3         1 RQ0      -0.055900
     35 C39        160.8290   150.0800   128.9950 c3         1 RQ0      -0.058900
     36 C40        172.7140   143.7490   127.9940 c3         1 RQ0      -0.053900
     37 C41        155.3670   155.7560   130.3810 c3         1 RQ0       0.000000
     38 C42        154.9170   154.4700   131.0570 c2         1 RQ0      -0.240200
     39 C43        167.0270   140.7390   130.7070 c2         1 RQ0      -0.216200
     40 C44        156.0110   148.6910   131.4440 c3         1 RQ0      -0.053900
     41 C45        166.4240   139.6640   130.1600 c2         1 RQ0      -0.112400
     42 C46        156.1520   156.6420   131.3380 cc         1 RQ0      -0.102400
     43 C47        167.2030   138.4020   129.8010 c3         1 RQ0      -0.034200
     44 C48        168.3020   144.6130   130.3870 c3         1 RQ0      -0.054900
     45 C49        155.7380   152.7470   129.3470 c3         1 RQ0      -0.061900
     46 C50        157.5370   156.5620   131.4830 cd         1 RQ0      -0.158400
     47 C51        167.1740   138.0090   128.3040 c3         1 RQ0      -0.034200
     48 C52        155.3210   157.5950   132.1460 c          1 RQ0       0.568500
     49 C53        164.9260   139.5440   129.8970 c3         1 RQ0      -0.054900
     50 C54        158.2860   157.4840   132.3970 c          1 RQ0       0.562500
     51 C55        156.0750   158.5310   133.0440 cc         1 RQ0      -0.144100
     52 C56        157.4520   158.4830   133.1710 cd         1 RQ0       0.112800
     53 C57        158.3920   155.5550   130.7230 c3         1 RQ0      -0.049900
     54 C58        167.7880   139.0580   127.3870 c2         1 RQ0      -0.214200
     55 C59        167.2290   139.6970   126.3390 c2         1 RQ0      -0.117400
     56 C60        165.8000   139.5350   125.8410 c3         1 RQ0      -0.055900
     57 C61        168.0130   140.6750   125.4820 c3         1 RQ0      -0.055900
     58 C62        154.0890   159.7530   133.9290 c3         1 RQ0       0.138900
     59 N04        158.1650   159.3400   134.0100 nv         1 RQ0      -0.946000
     60 O01        155.5080   159.5140   133.8530 os         1 RQ0      -0.336100
     61 O02        154.0970   157.6110   132.0600 o          1 RQ0      -0.512100
     62 O03        159.5110   157.4410   132.5110 o          1 RQ0      -0.510100
     63 H1         170.8050   145.2800   126.0210 hc         1 RQ0       0.046700
     64 H2         171.9430   146.5590   126.3640 hc         1 RQ0       0.046700
     65 H3         167.2470   147.0780   128.2890 hc         1 RQ0       0.047700
     66 H4         168.0950   148.5920   128.0740 hc         1 RQ0       0.047700
     67 H5         162.5380   147.0150   129.2510 ha         1 RQ0       0.168000
     68 H6         173.9810   142.6290   123.4310 hc         1 RQ0       0.043200
     69 H7         172.6180   141.5340   123.4780 hc         1 RQ0       0.043200
     70 H8         167.5090   148.5700   125.6270 hc         1 RQ0       0.046200
     71 H9         166.5960   147.0960   125.8530 hc         1 RQ0       0.046200
     72 H10        172.2940   146.9890   123.9910 hc         1 RQ0       0.044200
     73 H11        170.8770   146.0670   123.5380 hc         1 RQ0       0.044200
     74 H12        163.4880   149.8540   128.5830 ha         1 RQ0       0.172000
     75 H13        174.0180   141.0450   125.3810 hc         1 RQ0       0.044200
     76 H14        174.1790   142.7280   125.8060 hc         1 RQ0       0.044200
     77 H15        159.1590   150.2460   131.0840 ha         1 RQ0       0.172000
     78 H16        170.2910   141.2910   128.0160 hc         1 RQ0       0.045200
     79 H17        170.7990   142.3960   129.2740 hc         1 RQ0       0.045200
     80 H18        158.1560   147.3860   130.6020 ha         1 RQ0       0.171000
     81 H19        169.7910   144.3090   127.9790 hc         1 RQ0       0.044200
     82 H20        169.3640   143.2210   126.6860 hc         1 RQ0       0.044200
     83 H21        168.5270   145.7470   126.1350 ha         1 RQ0       0.169000
     84 H22        173.6160   145.0320   124.3490 ha         1 RQ0       0.165000
     85 H23        164.8630   147.0510   128.5440 ha         1 RQ0       0.169000
     86 H24        171.6080   141.0180   126.0430 ha         1 RQ0       0.163000
     87 H25        160.4980   146.8500   130.3380 ha         1 RQ0       0.170000
     88 H26        155.7530   152.4240   133.2300 hc         1 RQ0       0.046700
     89 H27        155.0460   150.8270   133.2120 hc         1 RQ0       0.046700
     90 H28        153.6230   152.3330   131.9770 hc         1 RQ0       0.049700
     91 H29        154.2770   151.1820   130.8400 hc         1 RQ0       0.049700
     92 H30        165.7340   143.9660   130.4630 hc         1 RQ0       0.043700
     93 H31        165.6770   142.6870   129.2730 hc         1 RQ0       0.043700
     94 H32        167.6180   142.1650   127.9460 ha         1 RQ0       0.175000
     95 H33        157.6530   151.7450   132.0580 ha         1 RQ0       0.169000
     96 H34        165.3760   141.8370   131.5890 hc         1 RQ0       0.042200
     97 H35        166.9510   142.4280   132.0410 hc         1 RQ0       0.042200
     98 H36        170.7680   148.9070   124.6390 hc         1 RQ0       0.038367
     99 H37        169.5790   149.4010   125.8450 hc         1 RQ0       0.038367
    100 H38        171.1990   148.9420   126.3550 hc         1 RQ0       0.038367
    101 H39        166.1710   150.8080   128.6270 hc         1 RQ0       0.040700
    102 H40        166.8970   150.5030   127.0430 hc         1 RQ0       0.040700
    103 H41        165.1490   150.6390   127.1870 hc         1 RQ0       0.040700
    104 H42        169.9750   144.0390   123.7890 hc         1 RQ0       0.040033
    105 H43        170.5440   142.7700   122.7040 hc         1 RQ0       0.040033
    106 H44        170.3390   142.4450   124.4280 hc         1 RQ0       0.040033
    107 H45        159.7610   150.2330   128.8050 hc         1 RQ0       0.043367
    108 H46        161.1550   150.8270   129.7280 hc         1 RQ0       0.043367
    109 H47        161.3290   150.3000   128.0450 hc         1 RQ0       0.043367
    110 H48        173.0820   143.5140   129.0000 hc         1 RQ0       0.038700
    111 H49        173.5820   144.0250   127.3900 hc         1 RQ0       0.038700
    112 H50        172.0950   144.6480   128.0790 hc         1 RQ0       0.038700
    113 H51        155.9680   155.5670   129.4870 hc         1 RQ0       0.065200
    114 H52        154.4880   156.2860   129.9930 hc         1 RQ0       0.065200
    115 H53        154.4100   154.6540   132.0050 ha         1 RQ0       0.167000
    116 H54        168.1060   140.7240   130.8650 ha         1 RQ0       0.169000
    117 H55        155.9220   148.3110   130.4190 hc         1 RQ0       0.040700
    118 H56        156.2520   147.8440   132.0960 hc         1 RQ0       0.040700
    119 H57        155.0160   149.0430   131.7340 hc         1 RQ0       0.040700
    120 H58        166.8140   137.5580   130.3840 hc         1 RQ0       0.042700
    121 H59        168.2520   138.5070   130.1030 hc         1 RQ0       0.042700
    122 H60        167.7080   145.5340   130.3580 hc         1 RQ0       0.038033
    123 H61        168.3890   144.3090   131.4370 hc         1 RQ0       0.038033
    124 H62        169.3120   144.8640   130.0500 hc         1 RQ0       0.038033
    125 H63        156.0410   153.5770   128.7030 hc         1 RQ0       0.045700
    126 H64        156.6360   152.1520   129.5440 hc         1 RQ0       0.045700
    127 H65        155.0560   152.1260   128.7540 hc         1 RQ0       0.045700
    128 H66        166.1500   137.7500   128.0210 hc         1 RQ0       0.043700
    129 H67        167.7420   137.0770   128.1930 hc         1 RQ0       0.043700
    130 H68        164.3620   140.4230   130.2250 hc         1 RQ0       0.037700
    131 H69        164.7190   139.4260   128.8280 hc         1 RQ0       0.037700
    132 H70        164.5040   138.6760   130.4170 hc         1 RQ0       0.037700
    133 H71        159.3200   155.3000   131.2490 hc         1 RQ0       0.053700
    134 H72        157.8640   154.6050   130.5760 hc         1 RQ0       0.053700
    135 H73        158.6650   155.9410   129.7330 hc         1 RQ0       0.053700
    136 H74        168.8310   139.2630   127.6340 ha         1 RQ0       0.164000
    137 H75        165.2090   138.8260   126.4270 hc         1 RQ0       0.038033
    138 H76        165.2680   140.4930   125.8700 hc         1 RQ0       0.038033
    139 H77        165.7860   139.1810   124.8030 hc         1 RQ0       0.038033
    140 H78        167.5520   141.6700   125.4890 hc         1 RQ0       0.038033
    141 H79        169.0450   140.7860   125.8330 hc         1 RQ0       0.038033
    142 H80        168.0590   140.3370   124.4390 hc         1 RQ0       0.038033
    143 H81        153.8810   160.5730   134.6280 h1         1 RQ0       0.035700
    144 H82        153.6860   160.0360   132.9490 h1         1 RQ0       0.035700
    145 H83        153.5610   158.8620   134.2900 h1         1 RQ0       0.035700
    146 H84        159.1850   159.3080   134.0570 hn         1 RQ0       0.502000
    147 H85        157.6770   160.0610   134.5420 hn         1 RQ0       0.502000
@<TRIPOS>BOND
     1     1     6 1   
     2     1     9 1   
     3     1    63 1   
     4     1    64 1   
     5     2     5 1   
     6     2    12 1   
     7     2    65 1   
     8     2    66 1   
     9     3     7 2   
    10     3    15 1   
    11     3    67 1   
    12     4     8 1   
    13     4    13 1   
    14     4    68 1   
    15     4    69 1   
    16     5    18 1   
    17     5    70 1   
    18     5    71 1   
    19     6    20 1   
    20     6    72 1   
    21     6    73 1   
    22     7    21 1   
    23     7    74 1   
    24     8    22 1   
    25     8    75 1   
    26     8    76 1   
    27     9    18 2   
    28     9    32 1   
    29    10    14 2   
    30    10    19 1   
    31    10    77 1   
    32    11    16 1   
    33    11    17 1   
    34    11    78 1   
    35    11    79 1   
    36    12    21 2   
    37    12    33 1   
    38    13    20 2   
    39    13    34 1   
    40    14    23 1   
    41    14    80 1   
    42    15    23 2   
    43    15    35 1   
    44    16    28 1   
    45    16    81 1   
    46    16    82 1   
    47    17    22 2   
    48    17    36 1   
    49    18    83 1   
    50    19    29 2   
    51    19    40 1   
    52    20    84 1   
    53    21    85 1   
    54    22    86 1   
    55    23    87 1   
    56    24    25 1   
    57    24    29 1   
    58    24    88 1   
    59    24    89 1   
    60    25    31 1   
    61    25    90 1   
    62    25    91 1   
    63    26    27 1   
    64    26    30 1   
    65    26    92 1   
    66    26    93 1   
    67    27    28 2   
    68    27    44 1   
    69    28    94 1   
    70    29    95 1   
    71    30    39 1   
    72    30    96 1   
    73    30    97 1   
    74    31    38 2   
    75    31    45 1   
    76    32    98 1   
    77    32    99 1   
    78    32   100 1   
    79    33   101 1   
    80    33   102 1   
    81    33   103 1   
    82    34   104 1   
    83    34   105 1   
    84    34   106 1   
    85    35   107 1   
    86    35   108 1   
    87    35   109 1   
    88    36   110 1   
    89    36   111 1   
    90    36   112 1   
    91    37    38 1   
    92    37    42 1   
    93    37   113 1   
    94    37   114 1   
    95    38   115 1   
    96    39    41 2   
    97    39   116 1   
    98    40   117 1   
    99    40   118 1   
   100    40   119 1   
   101    41    43 1   
   102    41    49 1   
   103    42    46 2   
   104    42    48 1   
   105    43    47 1   
   106    43   120 1   
   107    43   121 1   
   108    44   122 1   
   109    44   123 1   
   110    44   124 1   
   111    45   125 1   
   112    45   126 1   
   113    45   127 1   
   114    46    50 1   
   115    46    53 1   
   116    47    54 1   
   117    47   128 1   
   118    47   129 1   
   119    48    51 1   
   120    48    61 2   
   121    49   130 1   
   122    49   131 1   
   123    49   132 1   
   124    50    52 1   
   125    50    62 2   
   126    51    52 2   
   127    51    60 1   
   128    52    59 1   
   129    53   133 1   
   130    53   134 1   
   131    53   135 1   
   132    54    55 2   
   133    54   136 1   
   134    55    56 1   
   135    55    57 1   
   136    56   137 1   
   137    56   138 1   
   138    56   139 1   
   139    57   140 1   
   140    57   141 1   
   141    57   142 1   
   142    58    60 1   
   143    58   143 1   
   144    58   144 1   
   145    58   145 1   
   146    59   146 1   
   147    59   147 1   
@<TRIPOS>SUBSTRUCTURE
     1 RQ0         1 TEMP              0 ****  ****    0 ROOT
