@<TRIPOS>MOLECULE
RQ1
   48    51     1     0     0
SMALL
abcg2


@<TRIPOS>ATOM
      1 C10          7.1850     8.5120    32.5650 ca         1 RQ1      -0.109500
      2 C13          9.9030     9.0430    32.8010 ca         1 RQ1      -0.119000
      3 C17         11.6130     8.6090    28.3680 c3         1 RQ1      -0.088400
      4 C20          8.9320     7.8800    27.0430 cc         1 RQ1      -0.110400
      5 C21          9.1200     7.2800    25.8280 cd         1 RQ1      -0.175100
      6 C24          7.6830     4.5240    27.6380 ca         1 RQ1      -0.141000
      7 C26          7.3930     5.6990    29.7430 ca         1 RQ1      -0.153000
      8 C28          8.3510     6.8780    27.8860 ca         1 RQ1      -0.096800
      9 C02         12.0170    12.8540    29.1760 c          1 RQ1       0.740600
     10 C04         10.9380    12.2210    30.0110 cc         1 RQ1      -0.219600
     11 C05          9.7640    12.8540    30.4670 cc         1 RQ1       0.277900
     12 C08          9.1090     9.8210    31.9660 ca         1 RQ1       0.049800
     13 C09          7.7470     9.5600    31.8520 ca         1 RQ1      -0.119000
     14 C11          7.9770     7.7150    33.3810 ca         1 RQ1      -0.138000
     15 C12          9.3340     7.9850    33.4950 ca         1 RQ1      -0.109500
     16 C14         10.8260    10.9410    30.5220 cd         1 RQ1       0.055100
     17 C16         11.2490     8.6820    29.8370 c3         1 RQ1       0.169600
     18 C18         10.8220     9.5220    27.4360 c3         1 RQ1      -0.072400
     19 C19          9.3090     9.2780    27.4270 c3         1 RQ1      -0.012200
     20 C23          8.2180     5.7010    27.1140 ca         1 RQ1      -0.051200
     21 C25          7.2760     4.5390    28.9580 ca         1 RQ1      -0.098000
     22 C27          7.9220     6.8620    29.2190 ca         1 RQ1      -0.050000
     23 N06          9.0000    12.0620    31.1820 nd         1 RQ1      -0.570800
     24 N07          9.6620    10.8920    31.2340 na         1 RQ1       0.140000
     25 N22          8.6940     5.9800    25.8690 na         1 RQ1      -0.231700
     26 O01         11.8530    14.0670    28.9300 o          1 RQ1      -0.718500
     27 O03         12.9650    12.1350    28.8090 o          1 RQ1      -0.718500
     28 H1           6.1260     8.3120    32.4700 ha         1 RQ1       0.104500
     29 H2          10.9560     9.2580    32.9180 ha         1 RQ1       0.136000
     30 H3          11.4700     7.5670    28.0640 hc         1 RQ1       0.045200
     31 H4          12.6820     8.8110    28.2560 hc         1 RQ1       0.045200
     32 H5           9.5340     7.6880    24.9190 h4         1 RQ1       0.210000
     33 H6           7.5900     3.6310    27.0330 ha         1 RQ1       0.102000
     34 H7           7.0620     5.6790    30.7730 ha         1 RQ1       0.108000
     35 H8           9.4600    13.8740    30.2840 h4         1 RQ1       0.040100
     36 H9           7.1330    10.1700    31.2020 ha         1 RQ1       0.136000
     37 H10          7.5380     6.8910    33.9280 ha         1 RQ1       0.100000
     38 H11          9.9560     7.3780    34.1390 ha         1 RQ1       0.104500
     39 H12         10.1800     8.5180    29.9850 h1         1 RQ1       0.035700
     40 H13         11.7680     7.8970    30.3860 h1         1 RQ1       0.035700
     41 H14         11.2010     9.3770    26.4210 hc         1 RQ1       0.062700
     42 H15         11.0200    10.5650    27.6840 hc         1 RQ1       0.062700
     43 H16          8.8540     9.9950    26.7380 hc         1 RQ1       0.047700
     44 H17          8.8800     9.5090    28.4060 hc         1 RQ1       0.047700
     45 H18          6.8570     3.6420    29.3950 ha         1 RQ1       0.098000
     46 H19          7.9940     7.7500    29.8370 ha         1 RQ1       0.127000
     47 H20          8.7230     5.3390    25.0940 hn         1 RQ1       0.340000
     48 O15         11.6660     9.9120    30.4560 os         1 RQ1      -0.317100
@<TRIPOS>BOND
     1     1    13 ar  
     2     1    14 ar  
     3     1    28 1   
     4     2    12 ar  
     5     2    15 ar  
     6     2    29 1   
     7     3    17 1   
     8     3    18 1   
     9     3    30 1   
    10     3    31 1   
    11     4     5 2   
    12     4     8 1   
    13     4    19 1   
    14     5    25 1   
    15     5    32 1   
    16     6    20 ar  
    17     6    21 ar  
    18     6    33 1   
    19     7    21 ar  
    20     7    22 ar  
    21     7    34 1   
    22     8    20 ar  
    23     8    22 ar  
    24     9    10 1   
    25     9    26 1   
    26     9    27 1   
    27    10    11 1   
    28    10    16 2   
    29    11    23 2   
    30    11    35 1   
    31    12    13 ar  
    32    12    24 1   
    33    13    36 1   
    34    14    15 ar  
    35    14    37 1   
    36    15    38 1   
    37    16    24 1   
    38    16    48 1   
    39    17    39 1   
    40    17    40 1   
    41    17    48 1   
    42    18    19 1   
    43    18    41 1   
    44    18    42 1   
    45    19    43 1   
    46    19    44 1   
    47    20    25 1   
    48    21    45 1   
    49    22    46 1   
    50    23    24 1   
    51    25    47 1   
@<TRIPOS>SUBSTRUCTURE
     1 RQ1         1 TEMP              0 ****  ****    0 ROOT
