@<TRIPOS>MOLECULE
RQ1
   48    51     1     0     0
SMALL
No Charge or Current Charge


@<TRIPOS>ATOM
      1 C10          7.1140     8.7430    32.0710 ca         1 RQ1      -0.109500
      2 C13          9.7240     9.4200    32.8660 ca         1 RQ1      -0.119000
      3 C17         11.3250     8.7250    28.3730 c3         1 RQ1      -0.088400
      4 C20          8.5990     7.7690    27.1650 cc         1 RQ1      -0.110400
      5 C21          8.6300     7.3680    25.8330 cd         1 RQ1      -0.175100
      6 C24          7.9640     4.2300    27.4810 ca         1 RQ1      -0.141000
      7 C26          7.9120     5.0850    29.7760 ca         1 RQ1      -0.153000
      8 C28          8.3310     6.5770    27.9260 ca         1 RQ1      -0.096800
      9 C02         12.6210    12.6480    29.4860 c          1 RQ1       0.740600
     10 C04         11.3730    12.2430    30.1550 cc         1 RQ1      -0.219600
     11 C05         10.3520    13.1220    30.5730 cc         1 RQ1       0.277900
     12 C08          9.0970    10.1510    31.8360 ca         1 RQ1       0.049800
     13 C09          7.7830     9.8140    31.4520 ca         1 RQ1      -0.119000
     14 C11          7.7540     8.0060    33.0800 ca         1 RQ1      -0.138000
     15 C12          9.0570     8.3460    33.4800 ca         1 RQ1      -0.109500
     16 C14         10.9380    11.0040    30.5110 cd         1 RQ1       0.055100
     17 C16         11.1470     8.6430    29.9100 c3         1 RQ1       0.169600
     18 C18         10.3090     9.6130    27.6040 c3         1 RQ1      -0.072400
     19 C19          8.8320     9.1610    27.6960 c3         1 RQ1      -0.012200
     20 C23          8.2240     5.5370    27.0450 ca         1 RQ1      -0.051200
     21 C25          7.8090     4.0080    28.8650 ca         1 RQ1      -0.098000
     22 C27          8.1740     6.3900    29.3080 ca         1 RQ1      -0.050000
     23 N06          9.3430    12.5500    31.2210 nd         1 RQ1      -0.570800
     24 N07          9.7480    11.2240    31.2160 na         1 RQ1       0.140000
     25 N22          8.4000     5.9740    25.7460 na         1 RQ1      -0.231700
     26 O01         12.7930    13.8390    29.2730 o          1 RQ1      -0.718500
     27 O03         13.4390    11.8010    29.1620 o          1 RQ1      -0.718500
     28 H1           6.1030     8.4850    31.7660 ha         1 RQ1       0.104500
     29 H2          10.7310     9.6820    33.1830 ha         1 RQ1       0.136000
     30 H3          11.2680     7.7070    27.9700 hc         1 RQ1       0.045200
     31 H4          12.3410     9.0760    28.1550 hc         1 RQ1       0.045200
     32 H5           8.8110     7.9720    24.9470 h4         1 RQ1       0.210000
     33 H6           7.8810     3.4100    26.7720 ha         1 RQ1       0.102000
     34 H7           7.7860     4.9090    30.8420 ha         1 RQ1       0.108000
     35 H8          10.3300    14.1970    30.4440 h4         1 RQ1       0.040100
     36 H9           7.2830    10.3840    30.6720 ha         1 RQ1       0.136000
     37 H10          7.2380     7.1750    33.5570 ha         1 RQ1       0.100000
     38 H11          9.5500     7.7790    34.2680 ha         1 RQ1       0.104500
     39 H12         10.1010     8.4610    30.1710 h1         1 RQ1       0.035700
     40 H13         11.7240     7.7810    30.2680 h1         1 RQ1       0.035700
     41 H14         10.5980     9.6240    26.5460 hc         1 RQ1       0.062700
     42 H15         10.3870    10.6520    27.9420 hc         1 RQ1       0.062700
     43 H16          8.2160     9.8680    27.1270 hc         1 RQ1       0.047700
     44 H17          8.4890     9.2370    28.7330 hc         1 RQ1       0.047700
     45 H18          7.6050     3.0050    29.2330 ha         1 RQ1       0.098000
     46 H19          8.2450     7.2210    30.0020 ha         1 RQ1       0.127000
     47 H20          8.3710     5.4080    24.9030 hn         1 RQ1       0.340000
     48 O15         11.6620     9.8380    30.5360 os         1 RQ1      -0.317100
@<TRIPOS>BOND
     1     1    13 ar  
     2     1    14 ar  
     3     1    28 1   
     4     2    12 ar  
     5     2    15 ar  
     6     2    29 1   
     7     3    17 1   
     8     3    18 1   
     9     3    30 1   
    10     3    31 1   
    11     4     5 2   
    12     4     8 1   
    13     4    19 1   
    14     5    25 1   
    15     5    32 1   
    16     6    20 ar  
    17     6    21 ar  
    18     6    33 1   
    19     7    21 ar  
    20     7    22 ar  
    21     7    34 1   
    22     8    20 ar  
    23     8    22 ar  
    24     9    10 1   
    25     9    26 1   
    26     9    27 1   
    27    10    11 1   
    28    10    16 2   
    29    11    23 2   
    30    11    35 1   
    31    12    13 ar  
    32    12    24 1   
    33    13    36 1   
    34    14    15 ar  
    35    14    37 1   
    36    15    38 1   
    37    16    24 1   
    38    16    48 1   
    39    17    39 1   
    40    17    40 1   
    41    17    48 1   
    42    18    19 1   
    43    18    41 1   
    44    18    42 1   
    45    19    43 1   
    46    19    44 1   
    47    20    25 1   
    48    21    45 1   
    49    22    46 1   
    50    23    24 1   
    51    25    47 1   
@<TRIPOS>SUBSTRUCTURE
     1 RQ1         1 TEMP              0 ****  ****    0 ROOT
