@<TRIPOS>MOLECULE
RQ3
   47    48     1     0     0
SMALL
No Charge or Current Charge


@<TRIPOS>ATOM
      1 C1          14.9780    21.4000    43.5910 c          1 RQ3       0.700000
      2 O2          14.3220    20.4910    43.0950 o          1 RQ3      -0.709000
      3 O3          14.8970    22.5560    43.1940 o          1 RQ3      -0.709000
      4 C4          16.0420    21.0630    44.7110 c3         1 RQ3       0.040000
      5 C5          15.3640    21.2840    46.0870 c3         1 RQ3      -0.077600
      6 C6          17.3310    21.9360    44.6350 c3         1 RQ3      -0.077600
      7 O7          16.4440    19.6600    44.7420 os         1 RQ3      -0.354100
      8 C8          17.1150    18.9860    43.7320 ca         1 RQ3       0.211100
      9 C9          17.6040    17.7060    44.0380 ca         1 RQ3      -0.173500
     10 C10         18.3010    16.9520    43.0790 ca         1 RQ3      -0.065000
     11 C11         18.5140    17.4740    41.7900 ca         1 RQ3      -0.164300
     12 C12         17.3230    19.5050    42.4340 ca         1 RQ3      -0.173500
     13 C13         18.0190    18.7520    41.4730 ca         1 RQ3      -0.065000
     14 C14         19.2660    16.6550    40.7430 c3         1 RQ3      -0.081100
     15 C15         18.3100    15.7340    39.9660 c          1 RQ3       0.597100
     16 O16         17.6040    16.1610    39.0580 o          1 RQ3      -0.562100
     17 N17         18.3200    14.4140    40.4010 ns         1 RQ3      -0.157000
     18 C18         17.6100    13.2570    39.9770 ca         1 RQ3      -0.004000
     19 C19         16.7110    13.2430    38.8880 ca         1 RQ3      -0.156000
     20 C20         16.0460    12.0580    38.5230 ca         1 RQ3      -0.050300
     21 C21         16.2770    10.8780    39.2520 ca         1 RQ3      -0.149000
     22 C22         17.8310    12.0650    40.6920 ca         1 RQ3      -0.156000
     23 C23         17.1680    10.8760    40.3390 ca         1 RQ3      -0.050300
     24 C24         15.0780    12.0560    37.3490 c3         1 RQ3      -0.044800
     25 C25         17.4190     9.5960    41.1220 c3         1 RQ3      -0.044800
     26 H51         16.0510    21.0460    46.9080 hc         1 RQ3       0.029533
     27 H52         15.0460    22.3280    46.2000 hc         1 RQ3       0.029533
     28 H53         14.4750    20.6490    46.1870 hc         1 RQ3       0.029533
     29 H61         18.0800    21.5870    45.3570 hc         1 RQ3       0.029533
     30 H62         17.7840    21.9180    43.6390 hc         1 RQ3       0.029533
     31 H63         17.1040    22.9820    44.8710 hc         1 RQ3       0.029533
     32 H91         17.4440    17.2970    45.0330 ha         1 RQ3       0.134000
     33 H101        18.6730    15.9630    43.3400 ha         1 RQ3       0.093000
     34 H121        16.9460    20.4790    42.1470 ha         1 RQ3       0.134000
     35 H131        18.1680    19.1640    40.4770 ha         1 RQ3       0.093000
     36 H141        19.7580    17.3300    40.0320 hc         1 RQ3       0.049700
     37 H142        20.0290    16.0510    41.2500 hc         1 RQ3       0.049700
     38 H171        18.9530    14.2410    41.1700 hn         1 RQ3       0.143000
     39 H191        16.5160    14.1410    38.3110 ha         1 RQ3       0.129500
     40 H211        15.7620     9.9610    38.9730 ha         1 RQ3       0.103000
     41 H221        18.5240    12.0610    41.5310 ha         1 RQ3       0.129500
     42 H241        14.9900    11.0580    36.9030 hc         1 RQ3       0.039700
     43 H242        14.0780    12.3710    37.6690 hc         1 RQ3       0.039700
     44 H243        15.4090    12.7410    36.5590 hc         1 RQ3       0.039700
     45 H251        17.6320     9.8090    42.1760 hc         1 RQ3       0.039700
     46 H252        16.5490     8.9300    41.0910 hc         1 RQ3       0.039700
     47 H253        18.2750     9.0490    40.7100 hc         1 RQ3       0.039700
@<TRIPOS>BOND
     1     1     2 1   
     2     1     3 1   
     3     1     4 1   
     4     4     5 1   
     5     4     6 1   
     6     4     7 1   
     7     5    26 1   
     8     5    27 1   
     9     5    28 1   
    10     6    29 1   
    11     6    30 1   
    12     6    31 1   
    13     7     8 1   
    14     8     9 ar  
    15     8    12 ar  
    16     9    10 ar  
    17     9    32 1   
    18    10    11 ar  
    19    10    33 1   
    20    11    13 ar  
    21    11    14 1   
    22    12    13 ar  
    23    12    34 1   
    24    13    35 1   
    25    14    15 1   
    26    14    36 1   
    27    14    37 1   
    28    15    16 2   
    29    15    17 1   
    30    17    18 1   
    31    17    38 1   
    32    18    19 ar  
    33    18    22 ar  
    34    19    20 ar  
    35    19    39 1   
    36    20    21 ar  
    37    20    24 1   
    38    21    23 ar  
    39    21    40 1   
    40    22    23 ar  
    41    22    41 1   
    42    23    25 1   
    43    24    42 1   
    44    24    43 1   
    45    24    44 1   
    46    25    45 1   
    47    25    46 1   
    48    25    47 1   
@<TRIPOS>SUBSTRUCTURE
     1 RQ3         1 TEMP              0 ****  ****    0 ROOT
