@<TRIPOS>MOLECULE
RQ3
   47    48     1     0     0
SMALL
abcg2


@<TRIPOS>ATOM
      1 C1          15.4970    21.8660    43.1040 c          1 RQ3       0.700000
      2 O2          14.5480    21.1500    42.7110 o          1 RQ3      -0.709000
      3 O3          15.9560    22.8850    42.5340 o          1 RQ3      -0.709000
      4 C4          16.1360    21.4870    44.4840 c3         1 RQ3       0.040000
      5 C5          15.1800    21.9740    45.5710 c3         1 RQ3      -0.077600
      6 C6          17.5260    22.0690    44.7130 c3         1 RQ3      -0.077600
      7 O7          16.1700    20.0470    44.6800 os         1 RQ3      -0.354100
      8 C8          16.8570    19.2230    43.8470 ca         1 RQ3       0.211100
      9 C9          16.9540    17.8910    44.2670 ca         1 RQ3      -0.173500
     10 C10         17.6240    16.9560    43.4960 ca         1 RQ3      -0.065000
     11 C11         18.2200    17.3130    42.2830 ca         1 RQ3      -0.164300
     12 C12         17.4480    19.5920    42.6380 ca         1 RQ3      -0.173500
     13 C13         18.1170    18.6380    41.8750 ca         1 RQ3      -0.065000
     14 C14         18.9240    16.2820    41.4400 c3         1 RQ3      -0.081100
     15 C15         17.9470    15.3900    40.6790 c          1 RQ3       0.597100
     16 O16         17.0060    15.8570    40.0470 o          1 RQ3      -0.562100
     17 N17         18.2350    14.0620    40.7480 ns         1 RQ3      -0.157000
     18 C18         17.6120    12.9730    40.1090 ca         1 RQ3      -0.004000
     19 C19         16.4070    13.0700    39.4180 ca         1 RQ3      -0.156000
     20 C20         15.8560    11.9360    38.8130 ca         1 RQ3      -0.050300
     21 C21         16.5190    10.7180    38.9100 ca         1 RQ3      -0.149000
     22 C22         18.2630    11.7350    40.2020 ca         1 RQ3      -0.156000
     23 C23         17.7270    10.6030    39.6070 ca         1 RQ3      -0.050300
     24 C24         14.5520    12.0500    38.0690 c3         1 RQ3      -0.044800
     25 C25         18.4290     9.2740    39.7030 c3         1 RQ3      -0.044800
     26 H51         15.5740    21.7250    46.5590 hc         1 RQ3       0.029533
     27 H52         15.0630    23.0560    45.5060 hc         1 RQ3       0.029533
     28 H53         14.2030    21.5060    45.4500 hc         1 RQ3       0.029533
     29 H61         17.9010    21.7320    45.6820 hc         1 RQ3       0.029533
     30 H62         18.2360    21.7720    43.9440 hc         1 RQ3       0.029533
     31 H63         17.4740    23.1560    44.7190 hc         1 RQ3       0.029533
     32 H91         16.4970    17.6080    45.2070 ha         1 RQ3       0.134000
     33 H101        17.6880    15.9310    43.8430 ha         1 RQ3       0.093000
     34 H121        17.3970    20.6070    42.2780 ha         1 RQ3       0.134000
     35 H131        18.5700    18.9430    40.9390 ha         1 RQ3       0.093000
     36 H141        19.5370    16.7780    40.6840 hc         1 RQ3       0.049700
     37 H142        19.5930    15.6770    42.0530 hc         1 RQ3       0.049700
     38 H171        19.0490    13.8200    41.2940 hn         1 RQ3       0.143000
     39 H191        15.9030    14.0200    39.3520 ha         1 RQ3       0.129500
     40 H211        16.0930     9.8400    38.4380 ha         1 RQ3       0.103000
     41 H221        19.2010    11.6690    40.7420 ha         1 RQ3       0.129500
     42 H241        14.2710    11.0990    37.6170 hc         1 RQ3       0.039700
     43 H242        13.7460    12.3590    38.7390 hc         1 RQ3       0.039700
     44 H243        14.6160    12.8010    37.2780 hc         1 RQ3       0.039700
     45 H251        19.3580     9.3570    40.2670 hc         1 RQ3       0.039700
     46 H252        17.7950     8.5330    40.1960 hc         1 RQ3       0.039700
     47 H253        18.6650     8.8850    38.7100 hc         1 RQ3       0.039700
@<TRIPOS>BOND
     1     1     2 1   
     2     1     3 1   
     3     1     4 1   
     4     4     5 1   
     5     4     6 1   
     6     4     7 1   
     7     5    26 1   
     8     5    27 1   
     9     5    28 1   
    10     6    29 1   
    11     6    30 1   
    12     6    31 1   
    13     7     8 1   
    14     8     9 ar  
    15     8    12 ar  
    16     9    10 ar  
    17     9    32 1   
    18    10    11 ar  
    19    10    33 1   
    20    11    13 ar  
    21    11    14 1   
    22    12    13 ar  
    23    12    34 1   
    24    13    35 1   
    25    14    15 1   
    26    14    36 1   
    27    14    37 1   
    28    15    16 2   
    29    15    17 1   
    30    17    18 1   
    31    17    38 1   
    32    18    19 ar  
    33    18    22 ar  
    34    19    20 ar  
    35    19    39 1   
    36    20    21 ar  
    37    20    24 1   
    38    21    23 ar  
    39    21    40 1   
    40    22    23 ar  
    41    22    41 1   
    42    23    25 1   
    43    24    42 1   
    44    24    43 1   
    45    24    44 1   
    46    25    45 1   
    47    25    46 1   
    48    25    47 1   
@<TRIPOS>SUBSTRUCTURE
     1 RQ3         1 TEMP              0 ****  ****    0 ROOT
