@<TRIPOS>MOLECULE
RQ4
   35    37     1     0     0
SMALL
bcc


@<TRIPOS>ATOM
      1 CAA         22.3360   -11.7530    11.6950 c3         1 RQ4      -0.143400
      2 CAG         18.0080    -3.7330    10.3650 ca         1 RQ4      -0.131000
      3 CAH         17.2270    -4.7100    10.9690 ca         1 RQ4      -0.139500
      4 CAI         19.2500    -4.0740     9.8500 ca         1 RQ4      -0.139500
      5 CAJ         17.6840    -6.0160    11.0550 ca         1 RQ4      -0.103500
      6 CAK         19.7100    -5.3800     9.9350 ca         1 RQ4      -0.103500
      7 CAL         18.7120    -8.8540    10.9910 cc         1 RQ4      -0.233400
      8 CAM         23.0610    -9.0820     9.0880 ca         1 RQ4      -0.046000
      9 CAQ         25.0850    -8.5680     7.7020 c          1 RQ4       0.934200
     10 CAR         22.9720   -10.9010    10.6400 ca         1 RQ4       0.409600
     11 CAS         18.9310    -6.3700    10.5370 ca         1 RQ4      -0.111500
     12 CAT         19.4270    -7.7510    10.6160 cd         1 RQ4       0.418800
     13 CAU         24.3510    -9.4400     8.7220 ca         1 RQ4      -0.187900
     14 CAV         22.3550    -9.7810    10.0590 ca         1 RQ4      -0.264800
     15 CAW         21.0280    -9.2700    10.4190 cc         1 RQ4       0.532900
     16 CAX         24.8570   -10.5690     9.3560 ca         1 RQ4       0.330600
     17 CAY         26.2310   -11.1210     9.0520 c3         1 RQ4       0.637600
     18 F1          26.3320   -12.4060     9.4050 f          1 RQ4      -0.232967
     19 F2          26.5250   -11.0610     7.7500 f          1 RQ4      -0.232967
     20 F3          27.1910   -10.4680     9.7170 f          1 RQ4      -0.232967
     21 NAN         24.1890   -11.2640    10.2620 nb         1 RQ4      -0.678000
     22 NAO         20.7240    -8.0150    10.2920 nd         1 RQ4      -0.646000
     23 OAE         24.4320    -8.2860     6.6840 o          1 RQ4      -0.795300
     24 OAF         26.2260    -8.2060     8.0220 o          1 RQ4      -0.795300
     25 SAP         19.6990   -10.2420    10.9500 ss         1 RQ4      -0.176300
     26 H1          23.0810   -12.4240    12.1160 hc         1 RQ4       0.044367
     27 H2          21.9110   -11.1600    12.5060 hc         1 RQ4       0.044367
     28 H3          21.5360   -12.3720    11.2830 hc         1 RQ4       0.044367
     29 H6          19.8680    -3.3210     9.3780 ha         1 RQ4       0.126000
     30 H7          17.0620    -6.7570    11.5400 ha         1 RQ4       0.144500
     31 H8          20.6790    -5.6360     9.5290 ha         1 RQ4       0.144500
     32 H9          17.6770    -8.9240    11.2860 h4         1 RQ4       0.168000
     33 H10         22.5950    -8.2310     8.6090 ha         1 RQ4       0.168000
     34 H4          17.6510    -2.7130    10.3000 ha         1 RQ4       0.122000
     35 H5          16.2580    -4.4550    11.3800 ha         1 RQ4       0.126000
@<TRIPOS>BOND
     1     1    10 1   
     2     1    26 1   
     3     1    27 1   
     4     1    28 1   
     5     2     3 ar  
     6     2     4 ar  
     7     2    34 1   
     8     3     5 ar  
     9     3    35 1   
    10     4     6 ar  
    11     4    29 1   
    12     5    11 ar  
    13     5    30 1   
    14     6    11 ar  
    15     6    31 1   
    16     7    12 2   
    17     7    25 1   
    18     7    32 1   
    19     8    13 ar  
    20     8    14 ar  
    21     8    33 1   
    22     9    13 1   
    23     9    23 1   
    24     9    24 1   
    25    10    14 ar  
    26    10    21 ar  
    27    11    12 1   
    28    12    22 1   
    29    13    16 ar  
    30    14    15 1   
    31    15    22 2   
    32    15    25 1   
    33    16    17 1   
    34    16    21 ar  
    35    17    18 1   
    36    17    19 1   
    37    17    20 1   
@<TRIPOS>SUBSTRUCTURE
     1 RQ4         1 TEMP              0 ****  ****    0 ROOT
