@<TRIPOS>MOLECULE
RQ4
   35    37     1     0     0
SMALL
No Charge or Current Charge


@<TRIPOS>ATOM
      1 CAA         22.3910   -11.4180    11.9070 c3         1 RQ4      -0.143400
      2 CAG         17.8610    -3.6860    10.6660 ca         1 RQ4      -0.113000
      3 CAH         17.0090    -4.7830    10.8630 ca         1 RQ4      -0.121500
      4 CAI         19.2260    -3.9000    10.4210 ca         1 RQ4      -0.121500
      5 CAJ         17.5190    -6.0920    10.8160 ca         1 RQ4      -0.085500
      6 CAK         19.7380    -5.2080    10.3740 ca         1 RQ4      -0.085500
      7 CAL         18.6950    -8.8550    10.6970 cc         1 RQ4      -0.295000
      8 CAM         23.1000    -9.1380     8.8950 ca         1 RQ4      -0.028000
      9 CAQ         25.1350    -8.9690     7.4500 c          1 RQ4       0.723600
     10 CAR         23.0100   -10.7640    10.6800 ca         1 RQ4       0.344300
     11 CAS         18.8930    -6.3260    10.5710 ca         1 RQ4      -0.111500
     12 CAT         19.4350    -7.7060    10.5200 cd         1 RQ4       0.353500
     13 CAU         24.3850    -9.6090     8.5760 ca         1 RQ4      -0.122600
     14 CAV         22.3780    -9.7380     9.9450 ca         1 RQ4      -0.199500
     15 CAW         21.0540    -9.2230    10.2950 cc         1 RQ4       0.532900
     16 CAX         24.9280   -10.6790     9.3250 ca         1 RQ4       0.265300
     17 CAY         26.3210   -11.2890     9.0130 c3         1 RQ4       0.273700
     18 F1          26.5290   -12.4770     9.6340 f          1 RQ4      -0.111667
     19 F2          26.4950   -11.5260     7.6910 f          1 RQ4      -0.111667
     20 F3          27.3290   -10.4760     9.4070 f          1 RQ4      -0.111667
     21 NAN         24.2400   -11.2250    10.3670 nb         1 RQ4      -0.678000
     22 NAO         20.7830    -7.9250    10.2670 nd         1 RQ4      -0.646000
     23 OAE         24.6460    -9.0360     6.3320 o          1 RQ4      -0.690000
     24 OAF         26.1380    -8.3250     7.7170 o          1 RQ4      -0.690000
     25 SAP         19.6820   -10.2770    10.5410 ss         1 RQ4      -0.031400
     26 H1          23.1480   -11.9080    12.5310 hc         1 RQ4       0.044367
     27 H2          21.8860   -10.6820    12.5430 hc         1 RQ4       0.044367
     28 H3          21.6620   -12.1840    11.6190 hc         1 RQ4       0.044367
     29 H6          19.8890    -3.0510    10.2680 ha         1 RQ4       0.108000
     30 H7          16.8320    -6.9200    10.9720 ha         1 RQ4       0.126500
     31 H8          20.8010    -5.3440    10.1830 ha         1 RQ4       0.126500
     32 H9          17.6400    -8.9650    10.8990 h4         1 RQ4       0.150000
     33 H10         22.6670    -8.3180     8.3220 ha         1 RQ4       0.150000
     34 H4          17.4650    -2.6730    10.7020 ha         1 RQ4       0.104000
     35 H5          15.9500    -4.6200    11.0520 ha         1 RQ4       0.108000
@<TRIPOS>BOND
     1     1    10 1   
     2     1    26 1   
     3     1    27 1   
     4     1    28 1   
     5     2     3 ar  
     6     2     4 ar  
     7     2    34 1   
     8     3     5 ar  
     9     3    35 1   
    10     4     6 ar  
    11     4    29 1   
    12     5    11 ar  
    13     5    30 1   
    14     6    11 ar  
    15     6    31 1   
    16     7    12 2   
    17     7    25 1   
    18     7    32 1   
    19     8    13 ar  
    20     8    14 ar  
    21     8    33 1   
    22     9    13 1   
    23     9    23 1   
    24     9    24 1   
    25    10    14 ar  
    26    10    21 ar  
    27    11    12 1   
    28    12    22 1   
    29    13    16 ar  
    30    14    15 1   
    31    15    22 2   
    32    15    25 1   
    33    16    17 1   
    34    16    21 ar  
    35    17    18 1   
    36    17    19 1   
    37    17    20 1   
@<TRIPOS>SUBSTRUCTURE
     1 RQ4         1 TEMP              0 ****  ****    0 ROOT
