@<TRIPOS>MOLECULE
RQ5
   60    62     1     0     0
SMALL
No Charge or Current Charge


@<TRIPOS>ATOM
      1 C1         -62.0690    26.0380    -2.9110 c3         1 RQ5      -0.090100
      2 C2         -60.6460    25.5640    -2.5400 c3         1 RQ5      -0.085400
      3 C3         -60.2240    24.1960    -3.1440 c3         1 RQ5       0.239500
      4 C4         -58.8080    23.7740    -2.6310 c3         1 RQ5       0.142600
      5 C5         -61.3190    23.9290    -5.4590 ca         1 RQ5       0.452900
      6 C6         -63.3910    23.0090    -5.7390 ca         1 RQ5       0.477900
      7 C7         -64.5920    21.5700    -3.9810 c3         1 RQ5       0.293100
      8 C8         -64.4390    22.4540    -2.7450 ca         1 RQ5      -0.130300
      9 C9         -65.3860    23.4570    -2.4630 ca         1 RQ5      -0.062000
     10 C10        -65.2370    24.2720    -1.3270 ca         1 RQ5      -0.169500
     11 C11        -64.1440    24.0980    -0.4640 ca         1 RQ5       0.138100
     12 C12        -62.9190    24.8870     1.5310 c3         1 RQ5       0.161600
     13 C13        -63.1000    25.9730     2.6220 c3         1 RQ5       0.159600
     14 C14        -63.1960    23.0880    -0.7380 ca         1 RQ5      -0.169500
     15 C15        -63.3480    22.2700    -1.8720 ca         1 RQ5      -0.062000
     16 C17        -63.6980    23.7100    -9.1990 cc         1 RQ5       0.389700
     17 C19        -61.0070    23.9720   -10.9050 c3         1 RQ5      -0.105100
     18 C21        -62.2090    24.0130    -7.5510 ca         1 RQ5       0.175500
     19 C16        -63.3350    23.3710    -7.0990 ca         1 RQ5      -0.147600
     20 C20        -62.0500    26.2290   -10.3130 c3         1 RQ5      -0.105100
     21 N1         -60.2620    24.2540    -4.6280 nu         1 RQ5      -0.923100
     22 N2         -62.3690    23.2860    -4.9140 nb         1 RQ5      -0.332000
     23 N3         -64.5010    22.3450    -5.2300 nu         1 RQ5      -0.927100
     24 N4         -64.2830    23.1680    -8.1130 nd         1 RQ5      -0.551100
     25 N5         -62.4400    24.2270    -8.8800 na         1 RQ5      -0.299300
     26 N6         -61.1740    24.3070    -6.7430 nb         1 RQ5      -0.308000
     27 O1         -58.4380    22.4580    -3.0840 oh         1 RQ5      -0.654000
     28 O2         -64.0390    24.9400     0.6240 os         1 RQ5      -0.345100
     29 O3         -62.9990    27.2990     2.0690 oh         1 RQ5      -0.656000
     30 H1         -62.3370    26.9310    -2.3340 hc         1 RQ5       0.042033
     31 H3         -62.1350    26.2910    -3.9750 hc         1 RQ5       0.042033
     32 H2         -62.8080    25.2580    -2.6970 hc         1 RQ5       0.042033
     33 H5         -60.5880    25.4920    -1.4470 hc         1 RQ5       0.036700
     34 H4         -59.9250    26.3360    -2.8400 hc         1 RQ5       0.036700
     35 H6         -60.9220    23.4320    -2.7740 h1         1 RQ5       0.103700
     36 H7         -58.8120    23.7980    -1.5330 h1         1 RQ5       0.023200
     37 H8         -58.0690    24.5120    -2.9710 h1         1 RQ5       0.023200
     38 H12        -65.5680    21.0670    -3.9280 h1         1 RQ5       0.056700
     39 H13        -63.8240    20.7830    -3.9730 h1         1 RQ5       0.056700
     40 H14        -66.2340    23.6090    -3.1280 ha         1 RQ5       0.113500
     41 H15        -65.9690    25.0490    -1.1190 ha         1 RQ5       0.120500
     42 H16        -62.8670    23.9040     2.0160 h1         1 RQ5       0.043700
     43 H17        -61.9740    25.0600     0.9980 h1         1 RQ5       0.043700
     44 H18        -64.0760    25.8310     3.1070 h1         1 RQ5       0.033200
     45 H19        -62.3280    25.8270     3.3890 h1         1 RQ5       0.033200
     46 H21        -62.3400    22.9240    -0.0900 ha         1 RQ5       0.120500
     47 H22        -62.6100    21.4980    -2.0770 ha         1 RQ5       0.113500
     48 H23        -64.1130    23.7570   -10.1990 h5         1 RQ5       0.060800
     49 H26        -60.5710    23.0540   -10.4930 hc         1 RQ5       0.045367
     50 H27        -61.8430    23.6940   -11.5580 hc         1 RQ5       0.045367
     51 H25        -60.2420    24.4650   -11.5170 hc         1 RQ5       0.045367
     52 H24        -60.5880    25.1590    -9.1760 h1         1 RQ5       0.087700
     53 H28        -62.3410    26.8890    -9.4880 hc         1 RQ5       0.045367
     54 H29        -61.3010    26.7530   -10.9190 hc         1 RQ5       0.045367
     55 H30        -62.9330    26.0490   -10.9380 hc         1 RQ5       0.045367
     56 H10        -59.4570    24.6590    -5.1020 hn         1 RQ5       0.494000
     57 H11        -65.2060    22.1610    -5.9440 hn         1 RQ5       0.513000
     58 H9         -57.5190    22.2950    -2.7760 ho         1 RQ5       0.439000
     59 H20        -63.1690    27.9290     2.8040 ho         1 RQ5       0.442000
     60 C18        -61.4770    24.9040    -9.7690 c3         1 RQ5       0.093300
@<TRIPOS>BOND
     1     1     2 1   
     2     1    30 1   
     3     1    31 1   
     4     1    32 1   
     5     2     3 1   
     6     2    33 1   
     7     2    34 1   
     8     3     4 1   
     9     3    21 1   
    10     3    35 1   
    11     4    27 1   
    12     4    36 1   
    13     4    37 1   
    14     5    21 1   
    15     5    22 ar  
    16     5    26 ar  
    17     6    19 ar  
    18     6    22 ar  
    19     6    23 1   
    20     7     8 1   
    21     7    23 1   
    22     7    38 1   
    23     7    39 1   
    24     8     9 ar  
    25     8    15 ar  
    26     9    10 ar  
    27     9    40 1   
    28    10    11 ar  
    29    10    41 1   
    30    11    14 ar  
    31    11    28 1   
    32    12    13 1   
    33    12    28 1   
    34    12    42 1   
    35    12    43 1   
    36    13    29 1   
    37    13    44 1   
    38    13    45 1   
    39    14    15 ar  
    40    14    46 1   
    41    15    47 1   
    42    16    24 2   
    43    16    25 1   
    44    16    48 1   
    45    17    49 1   
    46    17    50 1   
    47    17    51 1   
    48    17    60 1   
    49    18    19 ar  
    50    18    25 1   
    51    18    26 ar  
    52    19    24 1   
    53    20    53 1   
    54    20    54 1   
    55    20    55 1   
    56    20    60 1   
    57    21    56 1   
    58    23    57 1   
    59    25    60 1   
    60    27    58 1   
    61    29    59 1   
    62    52    60 1   
@<TRIPOS>SUBSTRUCTURE
     1 RQ5         1 TEMP              0 ****  ****    0 ROOT
