@<TRIPOS>MOLECULE
RQ5
   60    62     1     0     0
SMALL
abcg2


@<TRIPOS>ATOM
      1 C1         -61.0420    25.6490    -2.2130 c3         1 RQ5      -0.090100
      2 C2         -59.7130    24.9100    -2.3460 c3         1 RQ5      -0.085400
      3 C3         -59.7700    23.7610    -3.3600 c3         1 RQ5       0.239500
      4 C4         -58.4680    22.9730    -3.3710 c3         1 RQ5       0.142600
      5 C5         -61.1370    23.8930    -5.4590 ca         1 RQ5       0.452900
      6 C6         -63.1140    22.6900    -5.6230 ca         1 RQ5       0.477900
      7 C7         -63.9150    21.3590    -3.7080 c3         1 RQ5       0.293100
      8 C8         -64.0940    22.4280    -2.6500 ca         1 RQ5      -0.130300
      9 C9         -64.9810    23.4910    -2.8260 ca         1 RQ5      -0.062000
     10 C10        -65.1330    24.4630    -1.8520 ca         1 RQ5      -0.169500
     11 C11        -64.3990    24.3920    -0.6650 ca         1 RQ5       0.138100
     12 C12        -63.8200    25.4120     1.4250 c3         1 RQ5       0.161600
     13 C13        -64.1820    26.6370     2.2220 c3         1 RQ5       0.159600
     14 C14        -63.5190    23.3290    -0.4670 ca         1 RQ5      -0.169500
     15 C15        -63.3720    22.3670    -1.4640 ca         1 RQ5      -0.062000
     16 C17        -63.8280    23.7820    -8.9050 cc         1 RQ5       0.389700
     17 C19        -61.2470    24.4710   -10.6710 c3         1 RQ5      -0.105100
     18 C21        -62.2700    24.0640    -7.3710 ca         1 RQ5       0.175500
     19 C16        -63.2760    23.2080    -6.9250 ca         1 RQ5      -0.147600
     20 C20        -62.7290    26.4450   -10.0630 c3         1 RQ5      -0.105100
     21 N1         -60.0780    24.2530    -4.6910 nu         1 RQ5      -0.923100
     22 N2         -62.0370    23.0460    -4.9170 nb         1 RQ5      -0.332000
     23 N3         -64.0100    21.8470    -5.0710 nu         1 RQ5      -0.927100
     24 N4         -64.2440    23.0440    -7.9040 nd         1 RQ5      -0.551100
     25 N5         -62.6390    24.4310    -8.6430 na         1 RQ5      -0.299300
     26 N6         -61.1840    24.4390    -6.6910 nb         1 RQ5      -0.308000
     27 O1         -58.6320    21.8170    -4.1950 oh         1 RQ5      -0.654000
     28 O2         -64.5930    25.4070     0.2230 os         1 RQ5      -0.345100
     29 O3         -63.7050    27.7980     1.5400 oh         1 RQ5      -0.656000
     30 H1         -60.9620    26.4740    -1.5040 hc         1 RQ5       0.042033
     31 H3         -61.3590    26.0590    -3.1740 hc         1 RQ5       0.042033
     32 H2         -61.8270    24.9770    -1.8620 hc         1 RQ5       0.042033
     33 H5         -59.4200    24.5000    -1.3760 hc         1 RQ5       0.036700
     34 H4         -58.9230    25.6070    -2.6460 hc         1 RQ5       0.036700
     35 H6         -60.5780    23.0850    -3.0850 h1         1 RQ5       0.103700
     36 H7         -58.2180    22.6790    -2.3460 h1         1 RQ5       0.023200
     37 H8         -57.6580    23.6060    -3.7520 h1         1 RQ5       0.023200
     38 H12        -64.6840    20.5920    -3.6040 h1         1 RQ5       0.056700
     39 H13        -62.9500    20.8720    -3.5570 h1         1 RQ5       0.056700
     40 H14        -65.5440    23.5710    -3.7480 ha         1 RQ5       0.113500
     41 H15        -65.8100    25.2950    -1.9980 ha         1 RQ5       0.120500
     42 H16        -64.0380    24.5180     2.0160 h1         1 RQ5       0.043700
     43 H17        -62.7530    25.4220     1.1810 h1         1 RQ5       0.043700
     44 H18        -65.2690    26.6820     2.3530 h1         1 RQ5       0.033200
     45 H19        -63.7190    26.5470     3.2100 h1         1 RQ5       0.033200
     46 H21        -62.9280    23.2530     0.4330 ha         1 RQ5       0.120500
     47 H22        -62.6570    21.5670    -1.3150 ha         1 RQ5       0.113500
     48 H23        -64.3360    23.8950    -9.8490 h5         1 RQ5       0.060800
     49 H26        -60.6350    23.6660   -10.2610 hc         1 RQ5       0.045367
     50 H27        -62.0210    24.0340   -11.3050 hc         1 RQ5       0.045367
     51 H25        -60.6150    25.1080   -11.2920 hc         1 RQ5       0.045367
     52 H24        -61.0740    25.7010    -8.9240 h1         1 RQ5       0.087700
     53 H28        -63.1610    27.0080    -9.2340 hc         1 RQ5       0.045367
     54 H29        -62.1150    27.1210   -10.6590 hc         1 RQ5       0.045367
     55 H30        -63.5400    26.0800   -10.6960 hc         1 RQ5       0.045367
     56 H10        -59.4020    24.8540    -5.1370 hn         1 RQ5       0.494000
     57 H11        -64.8290    21.6250    -5.6100 hn         1 RQ5       0.513000
     58 H9         -57.7600    21.4530    -4.3890 ho         1 RQ5       0.439000
     59 H20        -63.9800    28.5760     2.0380 ho         1 RQ5       0.442000
     60 C18        -61.8700    25.2960    -9.5470 c3         1 RQ5       0.093300
@<TRIPOS>BOND
     1     1     2 1   
     2     1    30 1   
     3     1    31 1   
     4     1    32 1   
     5     2     3 1   
     6     2    33 1   
     7     2    34 1   
     8     3     4 1   
     9     3    21 1   
    10     3    35 1   
    11     4    27 1   
    12     4    36 1   
    13     4    37 1   
    14     5    21 1   
    15     5    22 ar  
    16     5    26 ar  
    17     6    19 ar  
    18     6    22 ar  
    19     6    23 1   
    20     7     8 1   
    21     7    23 1   
    22     7    38 1   
    23     7    39 1   
    24     8     9 ar  
    25     8    15 ar  
    26     9    10 ar  
    27     9    40 1   
    28    10    11 ar  
    29    10    41 1   
    30    11    14 ar  
    31    11    28 1   
    32    12    13 1   
    33    12    28 1   
    34    12    42 1   
    35    12    43 1   
    36    13    29 1   
    37    13    44 1   
    38    13    45 1   
    39    14    15 ar  
    40    14    46 1   
    41    15    47 1   
    42    16    24 2   
    43    16    25 1   
    44    16    48 1   
    45    17    49 1   
    46    17    50 1   
    47    17    51 1   
    48    17    60 1   
    49    18    19 ar  
    50    18    25 1   
    51    18    26 ar  
    52    19    24 1   
    53    20    53 1   
    54    20    54 1   
    55    20    55 1   
    56    20    60 1   
    57    21    56 1   
    58    23    57 1   
    59    25    60 1   
    60    27    58 1   
    61    29    59 1   
    62    52    60 1   
@<TRIPOS>SUBSTRUCTURE
     1 RQ5         1 TEMP              0 ****  ****    0 ROOT
