@<TRIPOS>MOLECULE
RQ6
   49    52     1     0     0
SMALL
No Charge or Current Charge


@<TRIPOS>ATOM
      1 N1         -22.0410     7.1270    29.8230 n          1 RQ6      -0.418800
      2 N3         -17.1780     3.8090    24.8790 nb         1 RQ6      -0.647000
      3 C4         -21.7850     4.9290    28.7260 c6         1 RQ6      -0.111400
      4 C5         -20.3310     5.1080    28.2520 c          1 RQ6       0.605100
      5 C6         -18.8900     4.9570    26.1770 ca         1 RQ6      -0.085000
      6 C7         -18.3390     3.8070    25.5740 ca         1 RQ6       0.327900
      7 C8         -16.5230     4.9860    24.7570 ca         1 RQ6       0.366900
      8 C10        -16.2830     7.3960    25.1230 ca         1 RQ6      -0.125000
      9 C13        -18.7200     7.4120    26.5320 ca         1 RQ6      -0.073000
     10 C15        -21.8650     4.2790    30.1100 ca         1 RQ6      -0.045300
     11 C17        -21.8930     2.2850    31.5070 ca         1 RQ6       0.143000
     12 C20        -21.9710     5.0950    31.2610 ca         1 RQ6      -0.122600
     13 C21        -21.9840     6.6020    31.1330 c          1 RQ6       0.577600
     14 O2         -21.8850     7.3350    32.1080 o          1 RQ6      -0.536000
     15 C2         -21.9290     8.6020    29.6030 c3         1 RQ6       0.018000
     16 C1         -20.5110     9.2000    29.7500 c          1 RQ6       0.579100
     17 O          -20.3150    10.4070    29.8080 o          1 RQ6      -0.624100
     18 N          -19.4700     8.2980    29.8190 ns         1 RQ6      -0.495900
     19 C          -18.0610     8.6620    29.9720 c3         1 RQ6       0.095300
     20 C19        -22.0310     4.4860    32.5340 ca         1 RQ6      -0.042000
     21 C18        -21.9950     3.0860    32.6540 ca         1 RQ6      -0.103000
     22 Cl         -21.8450     0.5330    31.6610 cl         1 RQ6      -0.196000
     23 C16        -21.8260     2.8780    30.2380 ca         1 RQ6      -0.106000
     24 C3         -22.5160     6.2810    28.7060 c6         1 RQ6       0.122000
     25 O1         -19.4340     5.4220    29.0270 o          1 RQ6      -0.580100
     26 N2         -20.0970     4.8290    26.9160 ns         1 RQ6      -0.164000
     27 C14        -18.2160     6.1930    26.0220 ca         1 RQ6      -0.019000
     28 C12        -18.0030     8.6070    26.3460 ca         1 RQ6      -0.117000
     29 C11        -16.7860     8.5940    25.6500 ca         1 RQ6       0.170000
     30 F          -16.1010     9.7450    25.4750 f          1 RQ6      -0.174000
     31 C9         -17.0000     6.1950    25.3010 ca         1 RQ6      -0.073000
     32 H1         -22.2990     4.3110    27.9780 hc         1 RQ6       0.072700
     33 H2         -18.8380     2.8430    25.6670 h4         1 RQ6       0.027100
     34 H3         -15.5900     4.9590    24.1940 h4         1 RQ6       0.028100
     35 H4         -15.3440     7.4040    24.5740 ha         1 RQ6       0.141000
     36 H5         -19.6690     7.4510    27.0580 ha         1 RQ6       0.120000
     37 H6         -22.2760     8.8520    28.5930 h1         1 RQ6       0.081200
     38 H7         -22.5810     9.1230    30.3160 h1         1 RQ6       0.081200
     39 H8         -19.7100     7.3120    29.7520 hn         1 RQ6       0.347500
     40 H9         -17.4370     7.7720    29.8230 h1         1 RQ6       0.041033
     41 H10        -17.7890     9.4210    29.2270 h1         1 RQ6       0.041033
     42 H11        -17.8920     9.0610    30.9800 h1         1 RQ6       0.041033
     43 H12        -22.1050     5.0960    33.4320 ha         1 RQ6       0.148000
     44 H13        -22.0430     2.6220    33.6360 ha         1 RQ6       0.139000
     45 H14        -21.7440     2.2480    29.3560 ha         1 RQ6       0.129000
     46 H15        -22.3560     6.7850    27.7410 h1         1 RQ6       0.055200
     47 H16        -23.5970     6.1170    28.8230 h1         1 RQ6       0.055200
     48 H17        -20.8950     4.4990    26.3880 hn         1 RQ6       0.162000
     49 H18        -18.3920     9.5440    26.7370 ha         1 RQ6       0.144000
@<TRIPOS>BOND
     1     1    13 1   
     2     1    15 1   
     3     1    24 1   
     4     2     6 ar  
     5     2     7 ar  
     6     3     4 1   
     7     3    10 1   
     8     3    24 1   
     9     3    32 1   
    10     4    25 2   
    11     4    26 1   
    12     5     6 ar  
    13     5    26 1   
    14     5    27 ar  
    15     6    33 1   
    16     7    31 ar  
    17     7    34 1   
    18     8    29 ar  
    19     8    31 ar  
    20     8    35 1   
    21     9    27 ar  
    22     9    28 ar  
    23     9    36 1   
    24    10    12 ar  
    25    10    23 ar  
    26    11    21 ar  
    27    11    22 1   
    28    11    23 ar  
    29    12    13 1   
    30    12    20 ar  
    31    13    14 2   
    32    15    16 1   
    33    15    37 1   
    34    15    38 1   
    35    16    17 2   
    36    16    18 1   
    37    18    19 1   
    38    18    39 1   
    39    19    40 1   
    40    19    41 1   
    41    19    42 1   
    42    20    21 ar  
    43    20    43 1   
    44    21    44 1   
    45    23    45 1   
    46    24    46 1   
    47    24    47 1   
    48    26    48 1   
    49    27    31 ar  
    50    28    29 ar  
    51    28    49 1   
    52    29    30 1   
@<TRIPOS>SUBSTRUCTURE
     1 RQ6         1 TEMP              0 ****  ****    0 ROOT
