@<TRIPOS>MOLECULE
RQ6
   49    52     1     0     0
SMALL
abcg2


@<TRIPOS>ATOM
      1 N1         -21.8940     7.1240    30.0000 n          1 RQ6      -0.418800
      2 N3         -16.8550     3.7910    25.5400 nb         1 RQ6      -0.647000
      3 C4         -21.8180     5.0160    28.6860 c6         1 RQ6      -0.111400
      4 C5         -20.3540     5.0980    28.2530 c          1 RQ6       0.605100
      5 C6         -18.8170     4.8910    26.3820 ca         1 RQ6      -0.085000
      6 C7         -18.0920     3.7640    26.0960 ca         1 RQ6       0.327900
      7 C8         -16.3220     4.9620    25.2780 ca         1 RQ6       0.366900
      8 C10        -16.3600     7.4350    25.2160 ca         1 RQ6      -0.125000
      9 C13        -18.9550     7.3880    26.3110 ca         1 RQ6      -0.073000
     10 C15        -21.9430     4.2830    29.9940 ca         1 RQ6      -0.045300
     11 C17        -22.1630     2.2580    31.2550 ca         1 RQ6       0.143000
     12 C20        -21.8810     5.0090    31.1870 ca         1 RQ6      -0.122600
     13 C21        -21.7010     6.4890    31.1850 c          1 RQ6       0.577600
     14 O2         -21.3820     7.1020    32.2050 o          1 RQ6      -0.536000
     15 C2         -21.8080     8.5720    29.9670 c3         1 RQ6       0.018000
     16 C1         -20.4040     9.1690    29.8670 c          1 RQ6       0.579100
     17 O          -20.2700    10.3920    29.9720 o          1 RQ6      -0.624100
     18 N          -19.3900     8.3290    29.6550 ns         1 RQ6      -0.495900
     19 C          -18.0170     8.7850    29.5380 c3         1 RQ6       0.095300
     20 C19        -21.9590     4.3400    32.4070 ca         1 RQ6      -0.042000
     21 C18        -22.1060     2.9630    32.4520 ca         1 RQ6      -0.103000
     22 CL         -22.3460     0.5220    31.2930 cl         1 RQ6      -0.196000
     23 C16        -22.0810     2.9010    30.0280 ca         1 RQ6      -0.106000
     24 C3         -22.4090     6.4220    28.8230 c6         1 RQ6       0.122000
     25 O1         -19.4710     5.4750    29.0190 o          1 RQ6      -0.580100
     26 N2         -20.1100     4.7740    26.9660 ns         1 RQ6      -0.164000
     27 C14        -18.2760     6.1680    26.0880 ca         1 RQ6      -0.019000
     28 C12        -18.3560     8.5800    26.0030 ca         1 RQ6      -0.117000
     29 C11        -17.0600     8.5780    25.4640 ca         1 RQ6       0.170000
     30 F          -16.4990     9.7780    25.1810 f          1 RQ6      -0.174000
     31 C9         -16.9700     6.1970    25.5240 ca         1 RQ6      -0.073000
     32 H1         -22.3910     4.4940    27.9190 hc         1 RQ6       0.072700
     33 H2         -18.5050     2.7870    26.3200 h4         1 RQ6       0.027100
     34 H3         -15.3260     4.9710    24.8450 h4         1 RQ6       0.028100
     35 H4         -15.3650     7.4700    24.7930 ha         1 RQ6       0.141000
     36 H5         -19.9520     7.3810    26.7260 ha         1 RQ6       0.120000
     37 H6         -22.3750     8.9360    29.1110 h1         1 RQ6       0.081200
     38 H7         -22.2590     8.9910    30.8660 h1         1 RQ6       0.081200
     39 H8         -19.5700     7.3360    29.5640 hn         1 RQ6       0.347500
     40 H9         -17.3990     7.9370    29.2520 h1         1 RQ6       0.041033
     41 H10        -17.9300     9.5590    28.7750 h1         1 RQ6       0.041033
     42 H11        -17.6540     9.1900    30.4850 h1         1 RQ6       0.041033
     43 H12        -21.9060     4.9100    33.3240 ha         1 RQ6       0.148000
     44 H13        -22.1750     2.4420    33.3960 ha         1 RQ6       0.139000
     45 H14        -22.1230     2.3340    29.1080 ha         1 RQ6       0.129000
     46 H15        -22.1710     7.0180    27.9440 h1         1 RQ6       0.055200
     47 H16        -23.4980     6.3370    28.8830 h1         1 RQ6       0.055200
     48 H17        -20.8560     4.3950    26.4010 hn         1 RQ6       0.162000
     49 H18        -18.8590     9.5230    26.1700 ha         1 RQ6       0.144000
@<TRIPOS>BOND
     1     1    13 1   
     2     1    15 1   
     3     1    24 1   
     4     2     6 ar  
     5     2     7 ar  
     6     3     4 1   
     7     3    10 1   
     8     3    24 1   
     9     3    32 1   
    10     4    25 2   
    11     4    26 1   
    12     5     6 ar  
    13     5    26 1   
    14     5    27 ar  
    15     6    33 1   
    16     7    31 ar  
    17     7    34 1   
    18     8    29 ar  
    19     8    31 ar  
    20     8    35 1   
    21     9    27 ar  
    22     9    28 ar  
    23     9    36 1   
    24    10    12 ar  
    25    10    23 ar  
    26    11    21 ar  
    27    11    22 1   
    28    11    23 ar  
    29    12    13 1   
    30    12    20 ar  
    31    13    14 2   
    32    15    16 1   
    33    15    37 1   
    34    15    38 1   
    35    16    17 2   
    36    16    18 1   
    37    18    19 1   
    38    18    39 1   
    39    19    40 1   
    40    19    41 1   
    41    19    42 1   
    42    20    21 ar  
    43    20    43 1   
    44    21    44 1   
    45    23    45 1   
    46    24    46 1   
    47    24    47 1   
    48    26    48 1   
    49    27    31 ar  
    50    28    29 ar  
    51    28    49 1   
    52    29    30 1   
@<TRIPOS>SUBSTRUCTURE
     1 RQ6         1 TEMP              0 ****  ****    0 ROOT
