@<TRIPOS>MOLECULE
RQ7
   67    73     1     0     0
SMALL
abcg2


@<TRIPOS>ATOM
      1 N1           0.0900    -2.0480     9.2250 nh         1 RQ7      -0.782300
      2 N3           5.2130    -6.0640     5.5460 nc         1 RQ7      -0.615100
      3 C4           1.1310    -2.1040     6.9970 ca         1 RQ7      -0.016300
      4 C5          -0.0130    -1.5020     6.4770 ca         1 RQ7      -0.060300
      5 C6          -0.1440    -1.3360     5.0990 ca         1 RQ7      -0.089000
      6 C7           1.2980    -2.3120     8.4850 c6         1 RQ7       0.253100
      7 C8          -0.6210    -0.8550     8.8070 c6         1 RQ7       0.217800
      8 C13          7.0300    -5.8680     7.0090 ca         1 RQ7      -0.229000
      9 C15          8.2480    -8.1130     5.9810 ca         1 RQ7      -0.110000
     10 C17          8.2510    -6.2640     7.5420 ca         1 RQ7      -0.062000
     11 C20          0.7850    -3.7000    12.4260 ca         1 RQ7      -0.054000
     12 C21         -0.3890    -3.3980    13.1130 ca         1 RQ7      -0.090000
     13 C22         -1.3200    -2.6140    12.4240 ca         1 RQ7       0.378500
     14 C24         -0.5970    -3.8670    14.4820 cc         1 RQ7      -0.085000
     15 C26         -0.1730    -5.0630    15.0270 cd         1 RQ7      -0.191000
     16 C28          0.9720    -5.7160    18.0920 ca         1 RQ7      -0.068300
     17 C1           0.8370    -1.7690     4.2280 ca         1 RQ7      -0.123000
     18 C2           1.9700    -2.3870     4.7340 ca         1 RQ7      -0.096000
     19 C3           2.1210    -2.5520     6.1060 ca         1 RQ7      -0.156600
     20 C9          -1.1130    -1.0360     7.3880 c6         1 RQ7      -0.046100
     21 C11          4.9140    -5.0060     6.2150 cd         1 RQ7       0.449800
     22 C12          6.4130    -6.5800     5.9710 ca         1 RQ7       0.127400
     23 S1           6.0440    -4.5060     7.4500 ss         1 RQ7       0.130800
     24 C14          7.0330    -7.7170     5.4530 ca         1 RQ7      -0.071000
     25 C16          8.8530    -7.3940     7.0160 ca         1 RQ7      -0.119000
     26 C18         -0.0090    -2.4940    10.5230 ca         1 RQ7       0.593900
     27 C19          0.9940    -3.2660    11.1330 ca         1 RQ7      -0.264000
     28 N4          -1.1200    -2.1780    11.1860 nb         1 RQ7      -0.723000
     29 O2          -2.7630    -1.0600    13.4400 o          1 RQ7      -0.700500
     30 O3          -3.5350    -3.1160    12.9960 o          1 RQ7      -0.700500
     31 C25         -1.2390    -3.2250    15.5630 cc         1 RQ7       0.290900
     32 N5          -1.2100    -3.9630    16.6560 nd         1 RQ7      -0.559800
     33 N6          -0.5700    -5.0750    16.3120 na         1 RQ7       0.109800
     34 C27         -0.2640    -6.0770    17.3090 c3         1 RQ7       0.137900
     35 C29          0.9400    -4.7310    19.0720 ca         1 RQ7      -0.141000
     36 C30          2.1090    -4.4190    19.7470 ca         1 RQ7       0.325900
     37 N7           3.2730    -5.0150    19.5120 nb         1 RQ7      -0.672000
     38 C31          3.3010    -5.9560    18.5780 ca         1 RQ7       0.325900
     39 C32          2.1870    -6.3410    17.8460 ca         1 RQ7      -0.141000
     40 H1          -1.0340    -0.8550     4.7120 ha         1 RQ7       0.114000
     41 H2           1.5860    -3.3520     8.6460 h1         1 RQ7       0.059700
     42 H3           2.1290    -1.6960     8.8510 h1         1 RQ7       0.059700
     43 H4           0.0410     0.0200     8.8670 h1         1 RQ7       0.065700
     44 H5          -1.4540    -0.6830     9.4800 h1         1 RQ7       0.065700
     45 H8           1.5650    -4.2700    12.9180 ha         1 RQ7       0.090000
     46 H9           0.3550    -5.8960    14.5890 h4         1 RQ7       0.139000
     47 H10          0.7260    -1.6280     3.1610 ha         1 RQ7       0.112000
     48 H11          2.7450    -2.7170     4.0540 ha         1 RQ7       0.111000
     49 H12         -1.5300    -0.0980     7.0170 hc         1 RQ7       0.060200
     50 H13         -1.9290    -1.7650     7.3760 hc         1 RQ7       0.060200
     51 H15          6.5640    -8.2710     4.6510 ha         1 RQ7       0.126000
     52 H16          9.8040    -7.7230     7.4140 ha         1 RQ7       0.109000
     53 H17          1.9280    -3.4980    10.6430 ha         1 RQ7       0.101000
     54 H19         -1.7100    -2.2540    15.5730 h4         1 RQ7       0.071100
     55 H20         -1.1250    -6.1710    17.9700 h1         1 RQ7       0.065200
     56 H21         -0.1290    -7.0300    16.7990 h1         1 RQ7       0.065200
     57 H22          0.0210    -4.2120    19.3120 ha         1 RQ7       0.130000
     58 H23          2.1010    -3.6550    20.5160 h4         1 RQ7       0.013100
     59 H24          4.2580    -6.4340    18.3980 h4         1 RQ7       0.013100
     60 H25          2.2740    -7.1190    17.0980 ha         1 RQ7       0.130000
     61 C10          3.3780    -3.1710     6.6100 c          1 RQ7       0.623700
     62 H6           8.7400    -8.9930     5.5870 ha         1 RQ7       0.110000
     63 C23         -2.6680    -2.2270    13.0180 c          1 RQ7       0.621500
     64 O1           4.0410    -2.7130     7.5210 o          1 RQ7      -0.560100
     65 N2           3.7610    -4.3100     5.9610 ns         1 RQ7      -0.400400
     66 H7           8.7200    -5.7070     8.3420 ha         1 RQ7       0.121000
     67 H14          3.1630    -4.7120     5.2510 hn         1 RQ7       0.346500
@<TRIPOS>BOND
     1     1     6 1   
     2     1     7 1   
     3     1    26 1   
     4     2    21 2   
     5     2    22 1   
     6     3     4 ar  
     7     3     6 1   
     8     3    19 ar  
     9     4     5 ar  
    10     4    20 1   
    11     5    17 ar  
    12     5    40 1   
    13     6    41 1   
    14     6    42 1   
    15     7    20 1   
    16     7    43 1   
    17     7    44 1   
    18     8    10 ar  
    19     8    22 ar  
    20     8    23 1   
    21     9    24 ar  
    22     9    25 ar  
    23     9    62 1   
    24    10    25 ar  
    25    10    66 1   
    26    11    12 ar  
    27    11    27 ar  
    28    11    45 1   
    29    12    13 ar  
    30    12    14 1   
    31    13    28 ar  
    32    13    63 1   
    33    14    15 2   
    34    14    31 1   
    35    15    33 1   
    36    15    46 1   
    37    16    34 1   
    38    16    35 ar  
    39    16    39 ar  
    40    17    18 ar  
    41    17    47 1   
    42    18    19 ar  
    43    18    48 1   
    44    19    61 1   
    45    20    49 1   
    46    20    50 1   
    47    21    23 1   
    48    21    65 1   
    49    22    24 ar  
    50    24    51 1   
    51    25    52 1   
    52    26    27 ar  
    53    26    28 ar  
    54    27    53 1   
    55    29    63 1   
    56    30    63 1   
    57    31    32 2   
    58    31    54 1   
    59    32    33 1   
    60    33    34 1   
    61    34    55 1   
    62    34    56 1   
    63    35    36 ar  
    64    35    57 1   
    65    36    37 ar  
    66    36    58 1   
    67    37    38 ar  
    68    38    39 ar  
    69    38    59 1   
    70    39    60 1   
    71    61    64 2   
    72    61    65 1   
    73    65    67 1   
@<TRIPOS>SUBSTRUCTURE
     1 RQ7         1 TEMP              0 ****  ****    0 ROOT
