@<TRIPOS>MOLECULE
RQ7
   67    73     1     0     0
SMALL
No Charge or Current Charge


@<TRIPOS>ATOM
      1 N1           0.0770    -2.0370     9.4600 nh         1 RQ7      -0.782300
      2 N3           5.5700    -5.7920     5.0220 nc         1 RQ7      -0.615100
      3 C4           1.2620    -2.1490     7.1790 ca         1 RQ7      -0.016300
      4 C5           0.1680    -1.4330     6.6280 ca         1 RQ7      -0.060300
      5 C6           0.0850    -1.2110     5.2440 ca         1 RQ7      -0.089000
      6 C7           1.3050    -2.4130     8.7070 c6         1 RQ7       0.253100
      7 C8          -0.5360    -0.7680     8.9910 c6         1 RQ7       0.217800
      8 C13          7.1830    -6.2850     6.6850 ca         1 RQ7      -0.229000
      9 C15          8.5350    -8.0620     5.0270 ca         1 RQ7      -0.110000
     10 C17          8.3230    -6.9370     7.1810 ca         1 RQ7      -0.062000
     11 C20          0.5350    -3.6220    12.8060 ca         1 RQ7      -0.054000
     12 C21         -0.7740    -3.4660    13.3120 ca         1 RQ7      -0.090000
     13 C22         -1.7340    -2.8400    12.4550 ca         1 RQ7       0.378500
     14 C24         -1.0740    -3.9200    14.6920 cc         1 RQ7      -0.085000
     15 C26         -0.2510    -4.7820    15.3620 cd         1 RQ7      -0.191000
     16 C28          0.9890    -5.4330    18.2340 ca         1 RQ7      -0.068300
     17 C1           1.0870    -1.6880     4.3940 ca         1 RQ7      -0.123000
     18 C2           2.1770    -2.3940     4.9190 ca         1 RQ7      -0.096000
     19 C3           2.2880    -2.6420     6.3120 ca         1 RQ7      -0.156600
     20 C9          -0.9600    -0.9100     7.5190 c6         1 RQ7      -0.046100
     21 C11          5.2040    -5.0430     6.0700 cd         1 RQ7       0.449800
     22 C12          6.7100    -6.4950     5.4030 ca         1 RQ7       0.127400
     23 S1           6.1960    -5.1350     7.5640 ss         1 RQ7       0.130800
     24 C14          7.3860    -7.3910     4.5580 ca         1 RQ7      -0.071000
     25 C16          9.0020    -7.8350     6.3380 ca         1 RQ7      -0.119000
     26 C18         -0.1550    -2.5290    10.7590 ca         1 RQ7       0.593900
     27 C19          0.8400    -3.1530    11.5230 ca         1 RQ7      -0.264000
     28 N4          -1.4050    -2.3800    11.2070 nb         1 RQ7      -0.723000
     29 O2          -3.6630    -1.5670    13.0850 o          1 RQ7      -0.700500
     30 O3          -3.9030    -3.7020    12.9790 o          1 RQ7      -0.700500
     31 C25         -2.1690    -3.6950    15.5550 cc         1 RQ7       0.290900
     32 N5          -2.0810    -4.3230    16.7130 nd         1 RQ7      -0.559800
     33 N6          -0.8780    -5.0040    16.5920 na         1 RQ7       0.109800
     34 C27         -0.3710    -5.8610    17.6820 c3         1 RQ7       0.137900
     35 C29          1.3210    -4.0770    18.4230 ca         1 RQ7      -0.141000
     36 C30          2.5850    -3.7400    18.9380 ca         1 RQ7       0.325900
     37 N7           3.5170    -4.6640    19.2710 nb         1 RQ7      -0.672000
     38 C31          3.1980    -5.9680    19.0950 ca         1 RQ7       0.325900
     39 C32          1.9580    -6.3920    18.5860 ca         1 RQ7      -0.141000
     40 H1          -0.7600    -0.6670     4.8260 ha         1 RQ7       0.114000
     41 H2           1.4960    -3.4870     8.8500 h1         1 RQ7       0.059700
     42 H3           2.1620    -1.8650     9.1260 h1         1 RQ7       0.059700
     43 H4           0.1890     0.0550     9.0810 h1         1 RQ7       0.065700
     44 H5          -1.4180    -0.4800     9.5830 h1         1 RQ7       0.065700
     45 H8           1.3270    -4.0730    13.3960 ha         1 RQ7       0.090000
     46 H9           0.6840    -5.2560    15.0930 h4         1 RQ7       0.139000
     47 H10          1.0220    -1.5050     3.3230 ha         1 RQ7       0.112000
     48 H11          2.9460    -2.7220     4.2230 ha         1 RQ7       0.111000
     49 H12         -1.3160     0.0620     7.1530 hc         1 RQ7       0.060200
     50 H13         -1.8140    -1.5970     7.4560 hc         1 RQ7       0.060200
     51 H15          7.0250    -7.5650     3.5480 ha         1 RQ7       0.126000
     52 H16          9.8880    -8.3540     6.6980 ha         1 RQ7       0.109000
     53 H17          1.8520    -3.2600    11.1470 ha         1 RQ7       0.101000
     54 H19         -3.0320    -3.0660    15.3920 h4         1 RQ7       0.071100
     55 H20         -1.1020    -5.8610    18.5000 h1         1 RQ7       0.065200
     56 H21         -0.3060    -6.8870    17.3000 h1         1 RQ7       0.065200
     57 H22          0.6160    -3.2870    18.1800 ha         1 RQ7       0.130000
     58 H23          2.8610    -2.6980    19.0900 h4         1 RQ7       0.013100
     59 H24          3.9610    -6.6950    19.3710 h4         1 RQ7       0.013100
     60 H25          1.7620    -7.4540    18.4690 ha         1 RQ7       0.130000
     61 C10          3.4930    -3.4110     6.8370 c          1 RQ7       0.623700
     62 H6           9.0600    -8.7570     4.3750 ha         1 RQ7       0.110000
     63 C23         -3.2130    -2.6910    12.8800 c          1 RQ7       0.621500
     64 O1           3.9260    -3.2620     7.9690 o          1 RQ7      -0.560100
     65 N2           4.0930    -4.2520     5.9290 ns         1 RQ7      -0.400400
     66 H7           8.6750    -6.7540     8.1950 ha         1 RQ7       0.121000
     67 H14          3.6250    -4.3000     5.0390 hn         1 RQ7       0.346500
@<TRIPOS>BOND
     1     1     6 1   
     2     1     7 1   
     3     1    26 1   
     4     2    21 2   
     5     2    22 1   
     6     3     4 ar  
     7     3     6 1   
     8     3    19 ar  
     9     4     5 ar  
    10     4    20 1   
    11     5    17 ar  
    12     5    40 1   
    13     6    41 1   
    14     6    42 1   
    15     7    20 1   
    16     7    43 1   
    17     7    44 1   
    18     8    10 ar  
    19     8    22 ar  
    20     8    23 1   
    21     9    24 ar  
    22     9    25 ar  
    23     9    62 1   
    24    10    25 ar  
    25    10    66 1   
    26    11    12 ar  
    27    11    27 ar  
    28    11    45 1   
    29    12    13 ar  
    30    12    14 1   
    31    13    28 ar  
    32    13    63 1   
    33    14    15 2   
    34    14    31 1   
    35    15    33 1   
    36    15    46 1   
    37    16    34 1   
    38    16    35 ar  
    39    16    39 ar  
    40    17    18 ar  
    41    17    47 1   
    42    18    19 ar  
    43    18    48 1   
    44    19    61 1   
    45    20    49 1   
    46    20    50 1   
    47    21    23 1   
    48    21    65 1   
    49    22    24 ar  
    50    24    51 1   
    51    25    52 1   
    52    26    27 ar  
    53    26    28 ar  
    54    27    53 1   
    55    29    63 1   
    56    30    63 1   
    57    31    32 2   
    58    31    54 1   
    59    32    33 1   
    60    33    34 1   
    61    34    55 1   
    62    34    56 1   
    63    35    36 ar  
    64    35    57 1   
    65    36    37 ar  
    66    36    58 1   
    67    37    38 ar  
    68    38    39 ar  
    69    38    59 1   
    70    39    60 1   
    71    61    64 2   
    72    61    65 1   
    73    65    67 1   
@<TRIPOS>SUBSTRUCTURE
     1 RQ7         1 TEMP              0 ****  ****    0 ROOT
