@<TRIPOS>MOLECULE
RQ8
   38    39     1     0     0
SMALL
No Charge or Current Charge


@<TRIPOS>ATOM
      1 C18        -47.8030   -29.4980     1.4270 ca         1 RQ8       0.337900
      2 C16        -47.3300   -29.5010     2.7540 ca         1 RQ8      -0.062900
      3 C15        -45.9540   -29.6430     2.9890 ca         1 RQ8      -0.026000
      4 C14        -45.0950   -29.7810     1.8830 ca         1 RQ8      -0.090300
      5 C13        -43.5900   -29.9470     2.0750 c3         1 RQ8      -0.034100
      6 C10        -43.4240   -31.7730     3.8860 c          1 RQ8       0.708000
      7 C20        -45.6590   -29.7630     0.5880 ca         1 RQ8       0.327900
      8 C01        -45.3640   -34.0010    -5.0230 c3         1 RQ8      -0.137100
      9 C04        -44.8420   -34.7560    -2.6690 ca         1 RQ8      -0.232300
     10 C05        -44.0730   -33.7970    -1.9810 ca         1 RQ8      -0.002000
     11 C06        -44.3230   -33.5690    -0.6130 ca         1 RQ8      -0.185600
     12 C09        -43.1610   -31.4050     2.3930 c3         1 RQ8      -0.038300
     13 C22        -45.3440   -34.3150     0.0050 ca         1 RQ8       0.379900
     14 C24        -45.8430   -35.4440    -1.9590 ca         1 RQ8       0.368900
     15 F03        -45.0230   -36.2660    -4.5060 f          1 RQ8      -0.125500
     16 F25        -43.2980   -34.9670    -4.4640 f          1 RQ8      -0.125500
     17 N08        -43.7980   -32.3940     1.4860 ns         1 RQ8      -0.459900
     18 N19        -46.9860   -29.6260     0.3540 nb         1 RQ8      -0.685000
     19 N23        -46.0930   -35.2330    -0.6480 nb         1 RQ8      -0.675000
     20 O21        -42.6530   -31.8800    -0.4040 o          1 RQ8      -0.653100
     21 Br17       -48.5450   -29.3170     4.2230 br         1 RQ8      -0.125100
     22 H181       -48.8660   -29.3900     1.2170 h4         1 RQ8       0.018100
     23 H151       -45.5650   -29.6500     4.0050 ha         1 RQ8       0.161000
     24 H131       -43.2300   -29.2820     2.8710 hc         1 RQ8       0.059200
     25 H132       -43.0680   -29.6220     1.1670 hc         1 RQ8       0.059200
     26 H201       -45.0270   -29.8660    -0.2930 h4         1 RQ8       0.020100
     27 H011       -46.4420   -34.0480    -4.8300 hc         1 RQ8       0.062033
     28 H013       -45.0200   -32.9830    -4.8050 hc         1 RQ8       0.062033
     29 H012       -45.1970   -34.2000    -6.0880 hc         1 RQ8       0.062033
     30 H051       -43.2970   -33.2370    -2.5020 ha         1 RQ8       0.147000
     31 H091       -42.0750   -31.4750     2.2540 h1         1 RQ8       0.062700
     32 H221       -45.5900   -34.1840     1.0570 h4         1 RQ8       0.044100
     33 H241       -46.4740   -36.1850    -2.4480 h4         1 RQ8       0.021100
     34 H081       -44.5060   -32.9940     1.8920 hn         1 RQ8       0.352500
     35 O11        -42.5890   -31.4410     4.7150 o          1 RQ8      -0.714500
     36 C07        -43.5180   -32.5500     0.1440 c          1 RQ8       0.598700
     37 O12        -44.4000   -32.4620     4.1550 o          1 RQ8      -0.714500
     38 C02        -44.6140   -35.0260    -4.1540 c3         1 RQ8       0.234300
@<TRIPOS>BOND
     1     1     2 ar  
     2     1    18 ar  
     3     1    22 1   
     4     2     3 ar  
     5     2    21 1   
     6     3     4 ar  
     7     3    23 1   
     8     4     5 1   
     9     4     7 ar  
    10     5    12 1   
    11     5    24 1   
    12     5    25 1   
    13     6    12 1   
    14     6    35 1   
    15     6    37 1   
    16     7    18 ar  
    17     7    26 1   
    18     8    27 1   
    19     8    28 1   
    20     8    29 1   
    21     8    38 1   
    22     9    10 ar  
    23     9    14 ar  
    24     9    38 1   
    25    10    11 ar  
    26    10    30 1   
    27    11    13 ar  
    28    11    36 1   
    29    12    17 1   
    30    12    31 1   
    31    13    19 ar  
    32    13    32 1   
    33    14    19 ar  
    34    14    33 1   
    35    15    38 1   
    36    16    38 1   
    37    17    34 1   
    38    17    36 1   
    39    20    36 2   
@<TRIPOS>SUBSTRUCTURE
     1 RQ8         1 TEMP              0 ****  ****    0 ROOT
