@<TRIPOS>MOLECULE
RQ8
   38    39     1     0     0
SMALL
abcg2


@<TRIPOS>ATOM
      1 C18        -47.9110   -29.6350     2.2350 ca         1 RQ8       0.337900
      2 C16        -47.1510   -29.5340     3.3930 ca         1 RQ8      -0.062900
      3 C15        -45.7700   -29.5970     3.3310 ca         1 RQ8      -0.026000
      4 C14        -45.1680   -29.7590     2.0850 ca         1 RQ8      -0.090300
      5 C13        -43.6800   -29.8950     1.9380 c3         1 RQ8      -0.034100
      6 C10        -43.4160   -31.8400     3.5870 c          1 RQ8       0.708000
      7 C20        -46.0080   -29.8440     0.9750 ca         1 RQ8       0.327900
      8 C01        -44.6960   -34.5420    -5.2500 c3         1 RQ8      -0.137100
      9 C04        -44.8790   -34.7360    -2.7200 ca         1 RQ8      -0.232300
     10 C05        -44.0700   -33.8530    -2.0210 ca         1 RQ8      -0.002000
     11 C06        -44.5470   -33.2860    -0.8440 ca         1 RQ8      -0.185600
     12 C09        -43.1970   -31.3530     2.1270 c3         1 RQ8      -0.038300
     13 C22        -45.8410   -33.6070    -0.4380 ca         1 RQ8       0.379900
     14 C24        -46.1560   -34.9950    -2.2280 ca         1 RQ8       0.368900
     15 F03        -44.9900   -36.6060    -4.1500 f          1 RQ8      -0.125500
     16 F25        -43.0510   -35.5970    -3.9330 f          1 RQ8      -0.125500
     17 N08        -43.8690   -32.2670     1.2260 ns         1 RQ8      -0.459900
     18 N19        -47.3400   -29.7860     1.0400 nb         1 RQ8      -0.685000
     19 N23        -46.6350   -34.4390    -1.1150 nb         1 RQ8      -0.675000
     20 O21        -42.8620   -31.6130    -0.6990 o          1 RQ8      -0.653100
     21 BR17       -48.0320   -29.3050     5.0740 br         1 RQ8      -0.125100
     22 H181       -48.9930   -29.5900     2.2720 h4         1 RQ8       0.018100
     23 H151       -45.1680   -29.5260     4.2270 ha         1 RQ8       0.161000
     24 H131       -43.1650   -29.2820     2.6760 hc         1 RQ8       0.059200
     25 H132       -43.3800   -29.5580     0.9460 hc         1 RQ8       0.059200
     26 H201       -45.5800   -29.9580    -0.0150 h4         1 RQ8       0.020100
     27 H011       -45.7710   -34.3910    -5.3460 hc         1 RQ8       0.062033
     28 H013       -44.2080   -33.5720    -5.1670 hc         1 RQ8       0.062033
     29 H012       -44.3180   -35.0710    -6.1250 hc         1 RQ8       0.062033
     30 H051       -43.0780   -33.6050    -2.3710 ha         1 RQ8       0.147000
     31 H091       -42.1230   -31.3710     1.9290 h1         1 RQ8       0.062700
     32 H221       -46.2680   -33.1590     0.4520 h4         1 RQ8       0.044100
     33 H241       -46.8160   -35.6740    -2.7540 h4         1 RQ8       0.021100
     34 H081       -44.4580   -32.9370     1.7060 hn         1 RQ8       0.352500
     35 O11        -42.8230   -31.1830     4.4710 o          1 RQ8      -0.714500
     36 C07        -43.6810   -32.3160    -0.0970 c          1 RQ8       0.598700
     37 O12        -44.1670   -32.8330     3.7500 o          1 RQ8      -0.714500
     38 C02        -44.4120   -35.3550    -4.0140 c3         1 RQ8       0.234300
@<TRIPOS>BOND
     1     1     2 ar  
     2     1    18 ar  
     3     1    22 1   
     4     2     3 ar  
     5     2    21 1   
     6     3     4 ar  
     7     3    23 1   
     8     4     5 1   
     9     4     7 ar  
    10     5    12 1   
    11     5    24 1   
    12     5    25 1   
    13     6    12 1   
    14     6    35 1   
    15     6    37 1   
    16     7    18 ar  
    17     7    26 1   
    18     8    27 1   
    19     8    28 1   
    20     8    29 1   
    21     8    38 1   
    22     9    10 ar  
    23     9    14 ar  
    24     9    38 1   
    25    10    11 ar  
    26    10    30 1   
    27    11    13 ar  
    28    11    36 1   
    29    12    17 1   
    30    12    31 1   
    31    13    19 ar  
    32    13    32 1   
    33    14    19 ar  
    34    14    33 1   
    35    15    38 1   
    36    16    38 1   
    37    17    34 1   
    38    17    36 1   
    39    20    36 2   
@<TRIPOS>SUBSTRUCTURE
     1 RQ8         1 TEMP              0 ****  ****    0 ROOT
