@<TRIPOS>MOLECULE
RQ9
   59    62     1     0     0
SMALL
abcg2


@<TRIPOS>ATOM
      1 C10        -64.9930    24.1750    -0.4960 ca         1 RQ9       0.040800
      2 C13        -66.6380    24.4190     1.7500 ca         1 RQ9      -0.112000
      3 C17        -62.5730    24.2960    -3.1350 cc         1 RQ9      -0.193000
      4 C20        -58.3910    22.2200    -5.9500 c3         1 RQ9       0.134600
      5 C14        -65.7960    25.4500     1.3620 ca         1 RQ9       0.140000
      6 C18        -60.5970    24.3600    -6.9450 ca         1 RQ9       0.427900
      7 C2         -62.0480    26.3640   -10.5600 c3         1 RQ9       0.094300
      8 C3         -61.7520    25.4870   -11.7750 c3         1 RQ9      -0.105600
      9 C4         -64.0590    25.2200    -9.4670 cc         1 RQ9       0.394700
     10 C5         -62.1270    24.9910    -8.4340 ca         1 RQ9       0.168500
     11 C6         -63.1450    24.3060    -7.7700 ca         1 RQ9      -0.137600
     12 N7         -59.3180    24.4150    -6.4750 nu         1 RQ9      -0.925100
     13 C9         -63.4110    23.1970    -3.4430 cc         1 RQ9       0.229300
     14 C12        -66.6450    23.2550     0.9880 ca         1 RQ9      -0.087000
     15 C19        -58.8030    23.5840    -5.3970 c3         1 RQ9       0.243500
     16 C11        -65.8290    23.1220    -0.1270 ca         1 RQ9      -0.104000
     17 C15        -64.9770    25.3550     0.2470 ca         1 RQ9      -0.132000
     18 C16        -63.0790    24.8130    -1.9700 cd         1 RQ9      -0.155000
     19 C21        -57.6860    24.3070    -4.6360 c3         1 RQ9      -0.079400
     20 C7         -62.7660    23.6090    -6.6060 ca         1 RQ9       0.476900
     21 N1         -62.7300    25.5830    -9.5190 na         1 RQ9      -0.296300
     22 N2         -64.3500    24.4620    -8.4370 nd         1 RQ9      -0.546100
     23 N3         -63.6530    22.8870    -5.8870 nu         1 RQ9      -0.912100
     24 N4         -64.3630    23.0550    -2.5290 nd         1 RQ9      -0.516800
     25 N5         -64.1560    24.0480    -1.6270 na         1 RQ9       0.208000
     26 N6         -61.4860    23.6500    -6.2210 nb         1 RQ9      -0.347000
     27 N8         -60.8430    25.0510    -8.0720 nb         1 RQ9      -0.296000
     28 O1         -58.0060    21.3780    -4.8610 oh         1 RQ9      -0.666000
     29 CL1        -65.7700    26.9310     2.2960 cl         1 RQ9      -0.205000
     30 H14        -67.2690    24.5220     2.6210 ha         1 RQ9       0.134000
     31 H17        -61.7210    24.6440    -3.6910 ha         1 RQ9       0.164000
     32 H21        -57.5660    22.3330    -6.6620 h1         1 RQ9       0.028200
     33 H20        -59.2450    21.7920    -6.4840 h1         1 RQ9       0.028200
     34 H3         -63.0560    28.2090   -10.0300 hc         1 RQ9       0.046700
     35 H1         -62.2690    28.2200   -11.6170 hc         1 RQ9       0.046700
     36 H2         -63.7910    27.3560   -11.4000 hc         1 RQ9       0.046700
     37 H4         -61.1050    26.6660   -10.1040 h1         1 RQ9       0.086700
     38 H6         -61.1730    24.6090   -11.4860 hc         1 RQ9       0.046700
     39 H7         -62.6810    25.1540   -12.2430 hc         1 RQ9       0.046700
     40 H5         -61.1800    26.0540   -12.5110 hc         1 RQ9       0.046700
     41 H8         -64.7630    25.5480   -10.2150 h5         1 RQ9       0.063800
     42 H18        -58.6550    24.8260    -7.1120 hn         1 RQ9       0.495000
     43 H11        -64.0480    21.4480    -4.4560 h1         1 RQ9       0.075700
     44 H10        -62.3400    21.8320    -4.6820 h1         1 RQ9       0.075700
     45 H13        -67.2930    22.4370     1.2740 ha         1 RQ9       0.124000
     46 H19        -59.6270    23.4200    -4.7050 h1         1 RQ9       0.092700
     47 H26        -55.7130    25.1700    -4.8320 hc         1 RQ9       0.032367
     48 H27        -55.9700    23.7740    -5.8750 hc         1 RQ9       0.032367
     49 H25        -56.6840    25.3360    -6.2860 hc         1 RQ9       0.032367
     50 H12        -65.8320    22.2130    -0.7080 ha         1 RQ9       0.147000
     51 H15        -64.3550    26.1900    -0.0350 ha         1 RQ9       0.135000
     52 H16        -62.7470    25.6380    -1.3640 h4         1 RQ9       0.157000
     53 H24        -57.3920    23.6690    -3.8010 hc         1 RQ9       0.056200
     54 H23        -58.1140    25.2160    -4.2050 hc         1 RQ9       0.056200
     55 H9         -64.6250    22.9920    -6.1290 hn         1 RQ9       0.513000
     56 H22        -57.7600    20.5170    -5.2170 ho         1 RQ9       0.443000
     57 C8         -63.3390    22.2590    -4.6120 c3         1 RQ9       0.203500
     58 C22        -56.4480    24.6630    -5.4590 c3         1 RQ9      -0.092100
     59 C1         -62.8460    27.6120   -10.9180 c3         1 RQ9      -0.105600
@<TRIPOS>BOND
     1     1    16 ar  
     2     1    17 ar  
     3     1    25 1   
     4     2     5 ar  
     5     2    14 ar  
     6     2    30 1   
     7     3    13 1   
     8     3    18 2   
     9     3    31 1   
    10     4    15 1   
    11     4    28 1   
    12     4    32 1   
    13     4    33 1   
    14     5    17 ar  
    15     5    29 1   
    16     6    12 1   
    17     6    26 ar  
    18     6    27 ar  
    19     7     8 1   
    20     7    21 1   
    21     7    37 1   
    22     7    59 1   
    23     8    38 1   
    24     8    39 1   
    25     8    40 1   
    26     9    21 1   
    27     9    22 2   
    28     9    41 1   
    29    10    11 ar  
    30    10    21 1   
    31    10    27 ar  
    32    11    20 ar  
    33    11    22 1   
    34    12    15 1   
    35    12    42 1   
    36    13    24 2   
    37    13    57 1   
    38    14    16 ar  
    39    14    45 1   
    40    15    19 1   
    41    15    46 1   
    42    16    50 1   
    43    17    51 1   
    44    18    25 1   
    45    18    52 1   
    46    19    53 1   
    47    19    54 1   
    48    19    58 1   
    49    20    23 1   
    50    20    26 ar  
    51    23    55 1   
    52    23    57 1   
    53    24    25 1   
    54    28    56 1   
    55    34    59 1   
    56    35    59 1   
    57    36    59 1   
    58    43    57 1   
    59    44    57 1   
    60    47    58 1   
    61    48    58 1   
    62    49    58 1   
@<TRIPOS>SUBSTRUCTURE
     1 RQ9         1 TEMP              0 ****  ****    0 ROOT
