@<TRIPOS>MOLECULE
RQ9
   59    62     1     0     0
SMALL
No Charge or Current Charge


@<TRIPOS>ATOM
      1 C10        -65.0470    24.3440    -1.2520 ca         1 RQ9       0.040800
      2 C13        -66.7870    25.7370     0.4750 ca         1 RQ9      -0.112000
      3 C17        -62.2860    23.0050    -2.8650 cc         1 RQ9      -0.193000
      4 C20        -58.0520    22.1260    -5.9480 c3         1 RQ9       0.134600
      5 C14        -65.8690    26.4430    -0.3190 ca         1 RQ9       0.140000
      6 C18        -60.5570    24.1340    -6.6740 ca         1 RQ9       0.427900
      7 C2         -62.5020    26.6430    -9.7550 c3         1 RQ9       0.094300
      8 C3         -62.5090    26.3360   -11.2670 c3         1 RQ9      -0.105600
      9 C4         -64.2560    24.8980    -9.0060 cc         1 RQ9       0.394700
     10 C5         -62.2300    24.8360    -8.0480 ca         1 RQ9       0.168500
     11 C6         -63.0510    23.8560    -7.5520 ca         1 RQ9      -0.137600
     12 N7         -59.2560    24.3140    -6.2420 nu         1 RQ9      -0.925100
     13 C9         -63.3580    22.3780    -3.5390 cc         1 RQ9       0.229300
     14 C12        -66.8420    24.3350     0.4060 ca         1 RQ9      -0.087000
     15 C19        -58.4880    23.4780    -5.2930 c3         1 RQ9       0.243500
     16 C11        -65.9750    23.6410    -0.4570 ca         1 RQ9      -0.104000
     17 C15        -65.0020    25.7520    -1.1800 ca         1 RQ9      -0.132000
     18 C16        -62.8210    23.8310    -1.9230 cd         1 RQ9      -0.155000
     19 C21        -57.3120    24.3110    -4.7120 c3         1 RQ9      -0.079400
     20 C7         -62.5330    22.9990    -6.5610 ca         1 RQ9       0.476900
     21 N1         -62.9940    25.4950    -8.9700 na         1 RQ9      -0.296300
     22 N2         -64.3260    23.8730    -8.1340 nd         1 RQ9      -0.546100
     23 N3         -63.3180    21.9960    -6.0100 nu         1 RQ9      -0.912100
     24 N4         -64.5480    22.7420    -3.0890 nd         1 RQ9      -0.516800
     25 N5         -64.1910    23.6480    -2.1080 na         1 RQ9       0.208000
     26 N6         -61.2730    23.1390    -6.1160 nb         1 RQ9      -0.347000
     27 N8         -60.9640    25.0000    -7.6220 nb         1 RQ9      -0.296000
     28 O1         -57.3840    21.2670    -5.0050 oh         1 RQ9      -0.666000
     29 Cl1        -65.8040    28.1980    -0.2360 cl         1 RQ9      -0.205000
     30 H14        -67.4560    26.2780     1.1400 ha         1 RQ9       0.134000
     31 H17        -61.2340    22.8430    -3.0760 ha         1 RQ9       0.164000
     32 H21        -57.3970    22.3320    -6.8050 h1         1 RQ9       0.028200
     33 H20        -58.9440    21.6180    -6.3390 h1         1 RQ9       0.028200
     34 H3         -63.2370    28.1460    -8.3520 hc         1 RQ9       0.046700
     35 H1         -62.8700    28.7860    -9.9670 hc         1 RQ9       0.046700
     36 H2         -64.3440    27.8270    -9.7070 hc         1 RQ9       0.046700
     37 H4         -61.4560    26.8260    -9.4700 h1         1 RQ9       0.086700
     38 H6         -61.9130    25.4400   -11.4790 hc         1 RQ9       0.046700
     39 H7         -63.5290    26.1660   -11.6300 hc         1 RQ9       0.046700
     40 H5         -62.0780    27.1710   -11.8320 hc         1 RQ9       0.046700
     41 H8         -65.0480    25.2430    -9.6610 h5         1 RQ9       0.063800
     42 H18        -58.7610    25.0800    -6.6940 hn         1 RQ9       0.495000
     43 H11        -63.8580    20.5580    -4.5380 h1         1 RQ9       0.075700
     44 H10        -62.1370    20.9500    -4.5760 h1         1 RQ9       0.075700
     45 H13        -67.5550    23.7860     1.0190 ha         1 RQ9       0.124000
     46 H19        -59.1370    23.2260    -4.4410 h1         1 RQ9       0.092700
     47 H26        -55.4470    25.3230    -5.2230 hc         1 RQ9       0.032367
     48 H27        -55.7170    23.8360    -6.1450 hc         1 RQ9       0.032367
     49 H25        -56.6270    25.3120    -6.5460 hc         1 RQ9       0.032367
     50 H12        -66.0200    22.5550    -0.5090 ha         1 RQ9       0.147000
     51 H15        -64.2990    26.3090    -1.7940 ha         1 RQ9       0.135000
     52 H16        -62.3790    24.4900    -1.1850 h4         1 RQ9       0.157000
     53 H24        -56.8430    23.7400    -3.9010 hc         1 RQ9       0.056200
     54 H23        -57.7170    25.2170    -4.2460 hc         1 RQ9       0.056200
     55 H9         -64.2700    22.0230    -6.3790 hn         1 RQ9       0.513000
     56 H22        -57.1450    20.4430    -5.4850 ho         1 RQ9       0.443000
     57 C8         -63.1430    21.3830    -4.6690 c3         1 RQ9       0.203500
     58 C22        -56.2120    24.7180    -5.7230 c3         1 RQ9      -0.092100
     59 C1         -63.2890    27.9290    -9.4260 c3         1 RQ9      -0.105600
@<TRIPOS>BOND
     1     1    16 ar  
     2     1    17 ar  
     3     1    25 1   
     4     2     5 ar  
     5     2    14 ar  
     6     2    30 1   
     7     3    13 1   
     8     3    18 2   
     9     3    31 1   
    10     4    15 1   
    11     4    28 1   
    12     4    32 1   
    13     4    33 1   
    14     5    17 ar  
    15     5    29 1   
    16     6    12 1   
    17     6    26 ar  
    18     6    27 ar  
    19     7     8 1   
    20     7    21 1   
    21     7    37 1   
    22     7    59 1   
    23     8    38 1   
    24     8    39 1   
    25     8    40 1   
    26     9    21 1   
    27     9    22 2   
    28     9    41 1   
    29    10    11 ar  
    30    10    21 1   
    31    10    27 ar  
    32    11    20 ar  
    33    11    22 1   
    34    12    15 1   
    35    12    42 1   
    36    13    24 2   
    37    13    57 1   
    38    14    16 ar  
    39    14    45 1   
    40    15    19 1   
    41    15    46 1   
    42    16    50 1   
    43    17    51 1   
    44    18    25 1   
    45    18    52 1   
    46    19    53 1   
    47    19    54 1   
    48    19    58 1   
    49    20    23 1   
    50    20    26 ar  
    51    23    55 1   
    52    23    57 1   
    53    24    25 1   
    54    28    56 1   
    55    34    59 1   
    56    35    59 1   
    57    36    59 1   
    58    43    57 1   
    59    44    57 1   
    60    47    58 1   
    61    48    58 1   
    62    49    58 1   
@<TRIPOS>SUBSTRUCTURE
     1 RQ9         1 TEMP              0 ****  ****    0 ROOT
