@<TRIPOS>MOLECULE
RQA
   33    34     1     0     0
SMALL
No Charge or Current Charge


@<TRIPOS>ATOM
      1 C1         232.1470   257.8400   286.4690 c          1 RQA       0.724400
      2 C2        -232.2590   260.1360   286.6550 cc         1 RQA       0.785500
      3 C3         233.6560   260.1570   286.5290 cc         1 RQA      -0.496600
      4 C4        -234.3090   258.9580   286.3640 cd         1 RQA       0.049600
      5 C5         234.1980   256.4690   286.1630 c5         1 RQA       0.329700
      6 C6        -234.8710   256.0820   287.5230 c5         1 RQA       0.079300
      7 C7         235.8620   255.0050   287.0000 c5         1 RQA       0.118300
      8 C8        -236.3420   255.6470   285.6460 c5         1 RQA       0.165300
      9 C9         237.6900   256.4210   285.7370 c3         1 RQA       0.201600
     10 N1        -233.5490   257.7910   286.3380 n          1 RQA      -0.314000
     11 N2         231.5280   259.0800   286.6350 nd         1 RQA      -0.799100
     12 N3        -231.6140   261.2680   286.8210 nv         1 RQA      -1.046200
     13 O1         239.9250   257.3900   287.4520 o          1 RQA      -0.704200
     14 O2        -231.4460   256.8430   286.4490 o          1 RQA      -0.567000
     15 O3         233.9730   255.5250   288.5110 oh         1 RQA      -0.710000
     16 O4        -238.5270   259.3660   287.9520 o          1 RQA      -0.704200
     17 O5         235.1550   253.7690   286.8200 oh         1 RQA      -0.728000
     18 O6        -235.2830   256.5510   285.2170 os         1 RQA      -0.449000
     19 O7         237.5870   257.4770   286.7130 os         1 RQA      -0.617700
     20 S1        -238.9430   258.3660   286.9590 s6         1 RQA       1.493300
     21 H1         234.1870   261.1010   286.5540 ha         1 RQA       0.212000
     22 H2        -235.3850   258.8260   286.2470 h4         1 RQA       0.248000
     23 H3         233.4610   255.7220   285.8410 h2         1 RQA       0.109700
     24 H4        -235.4260   256.9360   287.9400 h1         1 RQA       0.089700
     25 H5         236.7010   254.8680   287.6970 h1         1 RQA       0.068700
     26 H6        -236.4630   254.8690   284.8800 h1         1 RQA       0.066700
     27 H7         237.9280   256.8220   284.7430 h1         1 RQA       0.046700
     28 H8        -238.4790   255.7060   286.0110 h1         1 RQA       0.046700
     29 H9         230.6720   261.1340   287.1640 hn         1 RQA       0.492500
     30 H10       -232.1400   262.0110   287.2610 hn         1 RQA       0.492500
     31 H12        233.4700   256.2720   288.9140 ho         1 RQA       0.506000
     32 H14       -234.4520   253.8140   287.5180 ho         1 RQA       0.513000
     33 O3S        239.2550   258.9190   285.6330 o          1 RQA      -0.704200
@<TRIPOS>BOND
     1     1    10 1   
     2     1    11 1   
     3     1    14 2   
     4     2     3 1   
     5     2    11 2   
     6     2    12 1   
     7     3     4 2   
     8     3    21 1   
     9     4    10 1   
    10     4    22 1   
    11     5     6 1   
    12     5    10 1   
    13     5    18 1   
    14     5    23 1   
    15     6     7 1   
    16     6    15 1   
    17     6    24 1   
    18     7     8 1   
    19     7    17 1   
    20     7    25 1   
    21     8     9 1   
    22     8    18 1   
    23     8    26 1   
    24     9    19 1   
    25     9    27 1   
    26     9    28 1   
    27    12    29 1   
    28    12    30 1   
    29    13    20 1   
    30    15    31 1   
    31    16    20 1   
    32    17    32 1   
    33    19    20 1   
    34    20    33 1   
@<TRIPOS>SUBSTRUCTURE
     1 RQA         1 TEMP              0 ****  ****    0 ROOT
