@<TRIPOS>MOLECULE
RQA
   33    34     1     0     0
SMALL
abcg2


@<TRIPOS>ATOM
      1 C1        -232.1940   257.9270   286.2410 c          1 RQA       0.724400
      2 C2        -232.4460   260.2110   286.5950 cc         1 RQA       0.785500
      3 C3        -233.8630   260.0940   286.7430 cc         1 RQA      -0.496600
      4 C4        -234.3750   258.8550   286.6310 cd         1 RQA       0.049600
      5 C5        -234.1870   256.4610   286.2990 c5         1 RQA       0.329700
      6 C6        -234.8190   255.9650   287.5980 c5         1 RQA       0.079300
      7 C7        -235.8410   254.9580   287.0620 c5         1 RQA       0.118300
      8 C8        -236.2880   255.6190   285.7560 c5         1 RQA       0.165300
      9 C9        -237.5920   256.3820   285.8280 c3         1 RQA       0.201600
     10 N1        -233.5860   257.7770   286.3960 n          1 RQA      -0.314000
     11 N2        -231.6780   259.1690   286.3520 nd         1 RQA      -0.799100
     12 N3        -231.8720   261.4090   286.6990 nv         1 RQA      -1.046200
     13 O1        -239.9000   258.0500   286.7500 o          1 RQA      -0.704200
     14 O2        -231.5020   256.9450   286.0170 o          1 RQA      -0.567000
     15 O3        -233.8310   255.4090   288.4190 oh         1 RQA      -0.710000
     16 O4        -238.2150   259.3270   288.0200 o          1 RQA      -0.704200
     17 O5        -235.2150   253.7380   286.7510 oh         1 RQA      -0.728000
     18 O6        -235.2270   256.4900   285.3600 os         1 RQA      -0.449000
     19 O7        -237.5250   257.3430   286.8660 os         1 RQA      -0.617700
     20 S1        -238.5580   258.6320   286.7830 s6         1 RQA       1.493300
     21 H1        -234.4970   260.9480   286.9300 ha         1 RQA       0.212000
     22 H2        -235.4370   258.6740   286.7170 h4         1 RQA       0.248000
     23 H3        -233.3900   255.7820   285.9910 h2         1 RQA       0.109700
     24 H4        -235.3460   256.7830   288.1000 h1         1 RQA       0.089700
     25 H5        -236.6780   254.8110   287.7560 h1         1 RQA       0.068700
     26 H6        -236.4240   254.8460   284.9900 h1         1 RQA       0.066700
     27 H7        -237.7780   256.8510   284.8570 h1         1 RQA       0.046700
     28 H8        -238.4000   255.6670   286.0110 h1         1 RQA       0.046700
     29 H9        -230.8760   261.5030   286.6010 hn         1 RQA       0.492500
     30 H10       -232.4110   262.2360   286.8890 hn         1 RQA       0.492500
     31 H12       -234.1490   255.4000   289.3270 ho         1 RQA       0.506000
     32 H14       -234.5940   253.5390   287.4620 ho         1 RQA       0.513000
     33 O3S       -238.1890   259.3420   285.5560 o          1 RQA      -0.704200
@<TRIPOS>BOND
     1     1    10 1   
     2     1    11 1   
     3     1    14 2   
     4     2     3 1   
     5     2    11 2   
     6     2    12 1   
     7     3     4 2   
     8     3    21 1   
     9     4    10 1   
    10     4    22 1   
    11     5     6 1   
    12     5    10 1   
    13     5    18 1   
    14     5    23 1   
    15     6     7 1   
    16     6    15 1   
    17     6    24 1   
    18     7     8 1   
    19     7    17 1   
    20     7    25 1   
    21     8     9 1   
    22     8    18 1   
    23     8    26 1   
    24     9    19 1   
    25     9    27 1   
    26     9    28 1   
    27    12    29 1   
    28    12    30 1   
    29    13    20 1   
    30    15    31 1   
    31    16    20 1   
    32    17    32 1   
    33    19    20 1   
    34    20    33 1   
@<TRIPOS>SUBSTRUCTURE
     1 RQA         1 TEMP              0 ****  ****    0 ROOT
