@<TRIPOS>MOLECULE
RQB
   41    44     1     0     0
SMALL
abcg2


@<TRIPOS>ATOM
      1 C10         -1.2770   -12.9970   -19.0340 c5         1 RQB       0.027700
      2 C13         -3.0190   -12.3860   -17.4440 c5         1 RQB       0.104000
      3 C15         -0.6590   -11.9500   -16.8680 c          1 RQB       0.557000
      4 C17          4.0440   -11.9940   -16.9500 ca         1 RQB      -0.093800
      5 C20          6.3450   -13.5750   -16.8870 ca         1 RQB      -0.092000
      6 C21          6.3800   -12.4030   -17.6270 ca         1 RQB      -0.124000
      7 C22          5.2240   -11.6210   -17.6510 ca         1 RQB      -0.044200
      8 C03          3.6810   -10.0470   -18.0140 cc         1 RQB      -0.146100
      9 C04          3.0690   -10.9660   -17.1980 cd         1 RQB      -0.161400
     10 C06          0.7810   -12.0030   -17.3790 c6         1 RQB       0.042700
     11 C08         -0.0750   -12.3490   -19.6880 c          1 RQB       0.559000
     12 C11         -2.5980   -12.8380   -19.7820 c5         1 RQB      -0.072400
     13 C12         -3.6350   -13.0590   -18.6760 c5         1 RQB      -0.097400
     14 C18          4.0420   -13.1830   -16.2080 ca         1 RQB      -0.065000
     15 C19          5.1890   -13.9610   -16.1830 ca         1 RQB      -0.137000
     16 N02          4.9760   -10.4300   -18.2900 na         1 RQB      -0.096700
     17 N07          0.8250   -11.8450   -18.8290 ns         1 RQB      -0.498900
     18 N14         -1.5750   -12.4260   -17.7150 n          1 RQB      -0.411800
     19 O09          0.0570   -12.3150   -20.9100 o          1 RQB      -0.560000
     20 O16         -0.9370   -11.5100   -15.7500 o          1 RQB      -0.563000
     21 H101        -1.0370   -14.0640   -18.9270 h1         1 RQB       0.071700
     22 H132        -3.3350   -11.3450   -17.3410 h1         1 RQB       0.059200
     23 H131        -3.2480   -12.9040   -16.5130 h1         1 RQB       0.059200
     24 H211         7.2710   -12.1070   -18.1650 ha         1 RQB       0.114000
     25 H011         6.2390   -10.3150   -19.9620 h1         1 RQB       0.050700
     26 H013         5.4420    -8.8030   -19.4880 h1         1 RQB       0.050700
     27 H012         6.8030    -9.4230   -18.5340 h1         1 RQB       0.050700
     28 H031         3.2890    -9.1300   -18.4250 h4         1 RQB       0.215000
     29 H061         1.1740   -12.9910   -17.1060 h1         1 RQB       0.067700
     30 H112        -2.6680   -11.8250   -20.1820 hc         1 RQB       0.069200
     31 H111        -2.6890   -13.5420   -20.6070 hc         1 RQB       0.069200
     32 H122        -4.6100   -12.6420   -18.9220 hc         1 RQB       0.056700
     33 H121        -3.7610   -14.1280   -18.4920 hc         1 RQB       0.056700
     34 H181         3.1590   -13.4910   -15.6620 ha         1 RQB       0.114000
     35 H191         5.1990   -14.8830   -15.6140 ha         1 RQB       0.112000
     36 H071         1.6840   -11.4760   -19.2170 hn         1 RQB       0.333500
     37 C05          1.6550   -10.9290   -16.7160 c3         1 RQB       0.001800
     38 H201         7.2240   -14.2060   -16.8480 ha         1 RQB       0.111000
     39 C01          5.9220    -9.7050   -19.1140 c3         1 RQB       0.067900
     40 H052         1.2180    -9.9490   -16.9180 hc         1 RQB       0.071700
     41 H051         1.6030   -11.0910   -15.6390 hc         1 RQB       0.071700
@<TRIPOS>BOND
     1     1    11 1   
     2     1    12 1   
     3     1    18 1   
     4     1    21 1   
     5     2    13 1   
     6     2    18 1   
     7     2    22 1   
     8     2    23 1   
     9     3    10 1   
    10     3    18 1   
    11     3    20 2   
    12     4     7 ar  
    13     4     9 1   
    14     4    14 ar  
    15     5     6 ar  
    16     5    15 ar  
    17     5    38 1   
    18     6     7 ar  
    19     6    24 1   
    20     7    16 1   
    21     8     9 2   
    22     8    16 1   
    23     8    28 1   
    24     9    37 1   
    25    10    17 1   
    26    10    29 1   
    27    10    37 1   
    28    11    17 1   
    29    11    19 2   
    30    12    13 1   
    31    12    30 1   
    32    12    31 1   
    33    13    32 1   
    34    13    33 1   
    35    14    15 ar  
    36    14    34 1   
    37    15    35 1   
    38    16    39 1   
    39    17    36 1   
    40    25    39 1   
    41    26    39 1   
    42    27    39 1   
    43    37    40 1   
    44    37    41 1   
@<TRIPOS>SUBSTRUCTURE
     1 RQB         1 TEMP              0 ****  ****    0 ROOT
