@<TRIPOS>MOLECULE
RQB
   41    44     1     0     0
SMALL
No Charge or Current Charge


@<TRIPOS>ATOM
      1 C10         -1.3280   -13.0720   -19.0140 c5         1 RQB       0.027700
      2 C13         -3.0980   -12.3310   -17.4430 c5         1 RQB       0.104000
      3 C15         -0.6550   -12.0360   -16.8090 c          1 RQB       0.557000
      4 C17          4.1120   -11.9760   -16.9730 ca         1 RQB      -0.093800
      5 C20          6.4050   -13.5430   -16.8670 ca         1 RQB      -0.092000
      6 C21          6.4120   -12.3480   -17.6190 ca         1 RQB      -0.124000
      7 C22          5.2340   -11.5830   -17.6480 ca         1 RQB      -0.044200
      8 C03          3.6430    -9.9760   -18.0450 cc         1 RQB      -0.146100
      9 C04          3.1090   -10.9660   -17.2260 cd         1 RQB      -0.161400
     10 C06          0.7930   -12.0560   -17.3790 c6         1 RQB       0.042700
     11 C08         -0.0570   -12.5150   -19.7450 c          1 RQB       0.559000
     12 C11         -2.6390   -12.7540   -19.7840 c5         1 RQB      -0.072400
     13 C12         -3.7010   -13.0430   -18.6860 c5         1 RQB      -0.097400
     14 C18          4.0710   -13.1550   -16.2150 ca         1 RQB      -0.065000
     15 C19          5.2400   -13.9440   -16.1680 ca         1 RQB      -0.137000
     16 N02          4.9660   -10.3860   -18.2940 na         1 RQB      -0.096700
     17 N07          0.8240   -11.9230   -18.8610 ns         1 RQB      -0.498900
     18 N14         -1.6510   -12.4660   -17.6970 n          1 RQB      -0.411800
     19 O09          0.1450   -12.4910   -20.9500 o          1 RQB      -0.560000
     20 O16         -0.9350   -11.6030   -15.6970 o          1 RQB      -0.563000
     21 H101        -1.1870   -14.1550   -18.8970 h1         1 RQB       0.071700
     22 H132        -3.3840   -11.2710   -17.4080 h1         1 RQB       0.059200
     23 H131        -3.4050   -12.8080   -16.5030 h1         1 RQB       0.059200
     24 H211         7.3040   -12.0350   -18.1560 ha         1 RQB       0.114000
     25 H011         6.2920   -10.3470   -19.9350 h1         1 RQB       0.050700
     26 H013         5.5500    -8.7730   -19.5260 h1         1 RQB       0.050700
     27 H012         6.8430    -9.4440   -18.4900 h1         1 RQB       0.050700
     28 H031         3.2130    -9.0660   -18.4510 h4         1 RQB       0.215000
     29 H061         1.1910   -13.0510   -17.1360 h1         1 RQB       0.067700
     30 H112        -2.6740   -11.7070   -20.1080 hc         1 RQB       0.069200
     31 H111        -2.7660   -13.3800   -20.6750 hc         1 RQB       0.069200
     32 H122        -4.6960   -12.6610   -18.9450 hc         1 RQB       0.056700
     33 H121        -3.8010   -14.1210   -18.5100 hc         1 RQB       0.056700
     34 H181         3.1720   -13.4530   -15.6810 ha         1 RQB       0.114000
     35 H191         5.2460   -14.8660   -15.5910 ha         1 RQB       0.112000
     36 H071         1.6450   -11.5000   -19.2780 hn         1 RQB       0.333500
     37 C05          1.6960   -10.9890   -16.6960 c3         1 RQB       0.001800
     38 H201         7.3010   -14.1580   -16.8230 ha         1 RQB       0.111000
     39 C01          5.9750    -9.6950   -19.1120 c3         1 RQB       0.067900
     40 H052         1.2430    -9.9970   -16.8210 hc         1 RQB       0.071700
     41 H051         1.7240   -11.1670   -15.6140 hc         1 RQB       0.071700
@<TRIPOS>BOND
     1     1    11 1   
     2     1    12 1   
     3     1    18 1   
     4     1    21 1   
     5     2    13 1   
     6     2    18 1   
     7     2    22 1   
     8     2    23 1   
     9     3    10 1   
    10     3    18 1   
    11     3    20 2   
    12     4     7 ar  
    13     4     9 1   
    14     4    14 ar  
    15     5     6 ar  
    16     5    15 ar  
    17     5    38 1   
    18     6     7 ar  
    19     6    24 1   
    20     7    16 1   
    21     8     9 2   
    22     8    16 1   
    23     8    28 1   
    24     9    37 1   
    25    10    17 1   
    26    10    29 1   
    27    10    37 1   
    28    11    17 1   
    29    11    19 2   
    30    12    13 1   
    31    12    30 1   
    32    12    31 1   
    33    13    32 1   
    34    13    33 1   
    35    14    15 ar  
    36    14    34 1   
    37    15    35 1   
    38    16    39 1   
    39    17    36 1   
    40    25    39 1   
    41    26    39 1   
    42    27    39 1   
    43    37    40 1   
    44    37    41 1   
@<TRIPOS>SUBSTRUCTURE
     1 RQB         1 TEMP              0 ****  ****    0 ROOT
