@<TRIPOS>MOLECULE
RQC
   39    41     1     0     0
SMALL
No Charge or Current Charge


@<TRIPOS>ATOM
      1 C18        -48.8540   -28.8550     4.5910 c5         1 RQC       0.117000
      2 C16        -47.5940   -30.0360     6.2680 c5         1 RQC      -0.067400
      3 C17        -47.5370   -28.7460     5.4020 c5         1 RQC      -0.201700
      4 C15        -49.0610   -29.9990     6.7710 c5         1 RQC       0.090000
      5 C11        -52.0310   -30.0010     6.5880 c3         1 RQC      -0.159400
      6 C10        -53.5690   -29.8590     6.4120 c3         1 RQC      -0.112700
      7 C19        -46.3150   -28.7260     4.4510 c          1 RQC       0.720000
      8 C04        -56.4410   -31.9890    10.6230 cc         1 RQC       0.323900
      9 C05        -55.6980   -31.6530     9.4870 cc         1 RQC      -0.338600
     10 C06        -55.1650   -32.5150     8.4620 c          1 RQC       0.615600
     11 C09        -54.3620   -30.4230     7.5600 cc         1 RQC       0.534900
     12 C23        -55.5510   -30.3170     9.5050 cd         1 RQC       0.153400
     13 N02        -56.2100   -29.8750    10.6560 na         1 RQC       0.118800
     14 N03        -56.7760   -30.9410    11.3630 nd         1 RQC      -0.523800
     15 N08        -54.5020   -31.7920     7.5290 ns         1 RQC      -0.431400
     16 N14        -49.7690   -29.4120     5.6100 n          1 RQC      -0.402800
     17 N22        -54.8570   -29.6270     8.5160 nd         1 RQC      -0.643100
     18 O20        -45.5470   -27.7780     4.5140 o          1 RQC      -0.727500
     19 O21        -46.1400   -29.6470     3.6660 o          1 RQC      -0.727500
     20 H182       -49.1870   -27.8780     4.2160 h1         1 RQC       0.061200
     21 H181       -48.7670   -29.5450     3.7400 h1         1 RQC       0.061200
     22 H161       -47.4130   -30.9380     5.6710 hc         1 RQC       0.054700
     23 H1         -46.8680   -30.0340     7.0890 hc         1 RQC       0.054700
     24 H2         -47.5340   -27.8480     6.0310 hc         1 RQC       0.037700
     25 H152       -49.1670   -29.3520     7.6520 h1         1 RQC       0.024700
     26 H151       -49.4240   -31.0040     7.0240 h1         1 RQC       0.024700
     27 H111       -51.7350   -31.0480     6.7230 hc         1 RQC       0.061700
     28 H112       -51.6920   -29.5610     7.5340 hc         1 RQC       0.061700
     29 H102       -53.8160   -28.7970     6.2950 hc         1 RQC       0.086700
     30 H101       -53.8780   -30.3450     5.4790 hc         1 RQC       0.086700
     31 H011       -56.5560   -28.4720    12.1950 h1         1 RQC       0.059033
     32 H012       -55.4000   -27.9520    10.9340 h1         1 RQC       0.059033
     33 H013       -57.1520   -27.9960    10.5760 h1         1 RQC       0.059033
     34 H041       -56.7530   -32.9770    10.9370 h4         1 RQC       0.047100
     35 H081       -54.0910   -32.3140     6.7710 hn         1 RQC       0.335500
     36 C12        -51.1680   -29.4140     5.4520 c          1 RQC       0.592100
     37 C01        -56.3380   -28.4880    11.1210 c3         1 RQC       0.084900
     38 O13        -51.6790   -28.9570     4.4360 o          1 RQC      -0.642100
     39 O07        -55.2800   -33.7280     8.4180 o          1 RQC      -0.547000
@<TRIPOS>BOND
     1     1     3 1   
     2     1    16 1   
     3     1    20 1   
     4     1    21 1   
     5     2     3 1   
     6     2     4 1   
     7     2    22 1   
     8     2    23 1   
     9     3     7 1   
    10     3    24 1   
    11     4    16 1   
    12     4    25 1   
    13     4    26 1   
    14     5     6 1   
    15     5    27 1   
    16     5    28 1   
    17     5    36 1   
    18     6    11 1   
    19     6    29 1   
    20     6    30 1   
    21     7    18 1   
    22     7    19 1   
    23     8     9 1   
    24     8    14 2   
    25     8    34 1   
    26     9    10 1   
    27     9    12 2   
    28    10    15 1   
    29    10    39 2   
    30    11    15 1   
    31    11    17 2   
    32    12    13 1   
    33    12    17 1   
    34    13    14 1   
    35    13    37 1   
    36    15    35 1   
    37    16    36 1   
    38    31    37 1   
    39    32    37 1   
    40    33    37 1   
    41    36    38 2   
@<TRIPOS>SUBSTRUCTURE
     1 RQC         1 TEMP              0 ****  ****    0 ROOT
