@<TRIPOS>MOLECULE
RQC
   39    41     1     0     0
SMALL
abcg2


@<TRIPOS>ATOM
      1 C18        -48.9850   -28.9280     4.6340 c5         1 RQC       0.117000
      2 C16        -47.7390   -29.8250     6.4770 c5         1 RQC      -0.067400
      3 C17        -47.6720   -28.7400     5.3960 c5         1 RQC      -0.201700
      4 C15        -49.2100   -29.8350     6.8870 c5         1 RQC       0.090000
      5 C11        -52.0600   -30.0610     6.5910 c3         1 RQC      -0.159400
      6 C10        -53.5640   -29.9300     6.3350 c3         1 RQC      -0.112700
      7 C19        -46.3990   -28.7520     4.5320 c          1 RQC       0.720000
      8 C04        -56.3600   -31.9590    10.7200 cc         1 RQC       0.323900
      9 C05        -55.6610   -31.7830     9.5060 cc         1 RQC      -0.338600
     10 C06        -55.1960   -32.6200     8.4450 c          1 RQC       0.615600
     11 C09        -54.3460   -30.5100     7.4730 cc         1 RQC       0.534900
     12 C23        -55.4200   -30.4050     9.4290 cd         1 RQC       0.153400
     13 N02        -55.9540   -29.8510    10.5350 na         1 RQC       0.118800
     14 N03        -56.5310   -30.7980    11.3310 nd         1 RQC      -0.523800
     15 N08        -54.5410   -31.8630     7.4580 ns         1 RQC      -0.431400
     16 N14        -49.9080   -29.4460     5.6520 n          1 RQC      -0.402800
     17 N22        -54.7730   -29.7420     8.4370 nd         1 RQC      -0.643100
     18 O20        -45.3170   -28.9790     5.1330 o          1 RQC      -0.727500
     19 O21        -46.5280   -28.5060     3.3050 o          1 RQC      -0.727500
     20 H182       -49.3740   -28.0060     4.2060 h1         1 RQC       0.061200
     21 H181       -48.8710   -29.6510     3.8230 h1         1 RQC       0.061200
     22 H161       -47.4650   -30.7910     6.0460 hc         1 RQC       0.054700
     23 H1         -47.0780   -29.6300     7.3180 hc         1 RQC       0.054700
     24 H2         -47.6980   -27.7630     5.8920 hc         1 RQC       0.037700
     25 H152       -49.4070   -29.1060     7.6780 h1         1 RQC       0.024700
     26 H151       -49.5430   -30.8130     7.2350 h1         1 RQC       0.024700
     27 H111       -51.7920   -31.1100     6.7510 hc         1 RQC       0.061700
     28 H112       -51.7920   -29.5330     7.5090 hc         1 RQC       0.061700
     29 H102       -53.8360   -28.8810     6.2360 hc         1 RQC       0.086700
     30 H101       -53.8260   -30.4380     5.4070 hc         1 RQC       0.086700
     31 H011       -56.4530   -28.3680    11.8720 h1         1 RQC       0.059033
     32 H012       -54.9320   -28.0830    10.9950 h1         1 RQC       0.059033
     33 H013       -56.4890   -27.8600    10.1670 h1         1 RQC       0.059033
     34 H041       -56.7350   -32.8680    11.1620 h4         1 RQC       0.047100
     35 H081       -54.1880   -32.3910     6.6700 hn         1 RQC       0.335500
     36 C12        -51.2280   -29.5280     5.4350 c          1 RQC       0.592100
     37 C01        -55.9540   -28.4500    10.9110 c3         1 RQC       0.084900
     38 O13        -51.7420   -29.1990     4.3580 o          1 RQC      -0.642100
     39 O07        -55.3070   -33.8370     8.3230 o          1 RQC      -0.547000
@<TRIPOS>BOND
     1     1     3 1   
     2     1    16 1   
     3     1    20 1   
     4     1    21 1   
     5     2     3 1   
     6     2     4 1   
     7     2    22 1   
     8     2    23 1   
     9     3     7 1   
    10     3    24 1   
    11     4    16 1   
    12     4    25 1   
    13     4    26 1   
    14     5     6 1   
    15     5    27 1   
    16     5    28 1   
    17     5    36 1   
    18     6    11 1   
    19     6    29 1   
    20     6    30 1   
    21     7    18 1   
    22     7    19 1   
    23     8     9 1   
    24     8    14 2   
    25     8    34 1   
    26     9    10 1   
    27     9    12 2   
    28    10    15 1   
    29    10    39 2   
    30    11    15 1   
    31    11    17 2   
    32    12    13 1   
    33    12    17 1   
    34    13    14 1   
    35    13    37 1   
    36    15    35 1   
    37    16    36 1   
    38    31    37 1   
    39    32    37 1   
    40    33    37 1   
    41    36    38 2   
@<TRIPOS>SUBSTRUCTURE
     1 RQC         1 TEMP              0 ****  ****    0 ROOT
