@<TRIPOS>MOLECULE
RQD
   26    26     1     0     0
SMALL
bcc


@<TRIPOS>ATOM
      1 C4          26.7610     2.0840    60.4940 ca         1 RQD      -0.108300
      2 C5          25.6380     2.7480    60.9800 ca         1 RQD      -0.092500
      3 C6          24.3980     2.1230    61.0370 ca         1 RQD      -0.167500
      4 C7          24.2970     0.8200    60.5960 ca         1 RQD       0.140900
      5 C8          25.3870     0.1240    60.1080 ca         1 RQD      -0.167500
      6 C9          26.6150     0.7670    60.0610 ca         1 RQD      -0.092500
      7 F           23.1030     0.2050    60.6470 f          1 RQD      -0.143900
      8 C3          28.0880     2.7810    60.3930 c3         1 RQD      -0.028100
      9 C2          28.4310     3.1970    58.9540 c3         1 RQD       0.112500
     10 N           29.6570     3.9730    58.9560 n8         1 RQD      -0.876800
     11 C1          27.2920     4.0190    58.3760 c          1 RQD       0.641100
     12 O1          26.6020     3.6590    57.4540 o          1 RQD      -0.536000
     13 O           27.1240     5.1650    59.0130 os         1 RQD      -0.393900
     14 C           26.0480     6.0020    58.5900 c3         1 RQD       0.122700
     15 H9          25.7260     3.7700    61.3280 ha         1 RQD       0.135000
     16 H10         23.5300     2.6440    61.4190 ha         1 RQD       0.150000
     17 H11         25.2810    -0.8990    59.7730 ha         1 RQD       0.150000
     18 H12         27.4750     0.2290    59.6810 ha         1 RQD       0.135000
     19 H7          28.8860     2.1220    60.7450 hc         1 RQD       0.064200
     20 H8          28.1040     3.6660    61.0310 hc         1 RQD       0.064200
     21 H           28.4840     2.2880    58.3400 h1         1 RQD       0.050700
     22 H1          30.3880     3.4320    59.4020 hn         1 RQD       0.348800
     23 H2          29.9710     4.1280    58.0060 hn         1 RQD       0.348800
     24 H5          26.0600     6.8620    59.2530 h1         1 RQD       0.048033
     25 H4          26.1850     6.3370    57.5620 h1         1 RQD       0.048033
     26 H6          25.0880     5.4930    58.6770 h1         1 RQD       0.048033
@<TRIPOS>BOND
     1     1     2 ar  
     2     1     6 ar  
     3     1     8 1   
     4     2     3 ar  
     5     2    15 1   
     6     3     4 ar  
     7     3    16 1   
     8     4     5 ar  
     9     4     7 1   
    10     5     6 ar  
    11     5    17 1   
    12     6    18 1   
    13     8     9 1   
    14     8    19 1   
    15     8    20 1   
    16     9    10 1   
    17     9    11 1   
    18     9    21 1   
    19    10    22 1   
    20    10    23 1   
    21    11    12 2   
    22    11    13 1   
    23    13    14 1   
    24    14    24 1   
    25    14    25 1   
    26    14    26 1   
@<TRIPOS>SUBSTRUCTURE
     1 RQD         1 TEMP              0 ****  ****    0 ROOT
