@<TRIPOS>MOLECULE
RQD
   26    26     1     0     0
SMALL
No Charge or Current Charge


@<TRIPOS>ATOM
      1 C4          26.7360     2.0880    60.5090 ca         1 RQD      -0.108300
      2 C5          25.5850     2.7400    60.9980 ca         1 RQD      -0.074500
      3 C6          24.3600     2.0540    61.0690 ca         1 RQD      -0.149500
      4 C7          24.2820     0.7160    60.6530 ca         1 RQD       0.176000
      5 C8          25.4220     0.0590    60.1660 ca         1 RQD      -0.149500
      6 C9          26.6480     0.7440    60.0940 ca         1 RQD      -0.074500
      7 F           23.1050     0.0580    60.7220 f          1 RQD      -0.179000
      8 C3          28.0640     2.8330    60.4190 c3         1 RQD      -0.028100
      9 C2          28.4210     3.2350    58.9650 c3         1 RQD       0.112500
     10 N           29.8180     3.7980    58.9070 n8         1 RQD      -0.987200
     11 C1          27.3000     4.1300    58.3210 c          1 RQD       0.592100
     12 O1          26.7950     3.8950    57.2280 o          1 RQD      -0.487000
     13 O           27.0020     5.2370    59.0810 os         1 RQD      -0.417100
     14 C           25.9950     6.1420    58.5950 c3         1 RQD       0.145900
     15 H9          25.6380     3.7780    61.3200 ha         1 RQD       0.117000
     16 H10         23.4720     2.5560    61.4450 ha         1 RQD       0.132000
     17 H11         25.3540    -0.9780    59.8460 ha         1 RQD       0.132000
     18 H12         27.5290     0.2290    59.7140 ha         1 RQD       0.117000
     19 H7          28.8620     2.1970    60.8220 hc         1 RQD       0.064200
     20 H8          28.0470     3.7290    61.0520 hc         1 RQD       0.064200
     21 H           28.4330     2.3110    58.3700 h1         1 RQD       0.050700
     22 H1          30.4840     3.0950    59.2490 hn         1 RQD       0.404000
     23 H2          30.0930     3.9290    57.9250 hn         1 RQD       0.404000
     24 H5          25.8580     6.9730    59.2980 h1         1 RQD       0.048033
     25 H4          26.2830     6.5630    57.6230 h1         1 RQD       0.048033
     26 H6          25.0310     5.6290    58.4820 h1         1 RQD       0.048033
@<TRIPOS>BOND
     1     1     2 ar  
     2     1     6 ar  
     3     1     8 1   
     4     2     3 ar  
     5     2    15 1   
     6     3     4 ar  
     7     3    16 1   
     8     4     5 ar  
     9     4     7 1   
    10     5     6 ar  
    11     5    17 1   
    12     6    18 1   
    13     8     9 1   
    14     8    19 1   
    15     8    20 1   
    16     9    10 1   
    17     9    11 1   
    18     9    21 1   
    19    10    22 1   
    20    10    23 1   
    21    11    12 2   
    22    11    13 1   
    23    13    14 1   
    24    14    24 1   
    25    14    25 1   
    26    14    26 1   
@<TRIPOS>SUBSTRUCTURE
     1 RQD         1 TEMP              0 ****  ****    0 ROOT
