@<TRIPOS>MOLECULE
RQE
   54    59     1     0     0
SMALL
abcg2


@<TRIPOS>ATOM
      1 C3         -59.5890    24.5130    -8.5240 cc         1 RQE      -0.117200
      2 C2         -58.6580    25.4920    -8.1330 cc         1 RQE       0.272900
      3 C5         -61.7510    22.9820    -6.1220 ca         1 RQE      -0.139600
      4 C6         -61.9070    22.5010    -4.8050 ca         1 RQE       0.484900
      5 C9         -64.3410    23.5280    -0.3570 ca         1 RQE       0.063400
      6 C8         -63.5070    22.4010    -1.9890 cc         1 RQE       0.380800
      7 C7         -63.2550    21.3790    -3.0560 c3         1 RQE       0.221500
      8 C12        -63.4460    25.7810     0.9960 ca         1 RQE      -0.094000
      9 C14        -65.1210    24.0380     0.6830 ca         1 RQE      -0.048000
     10 C16        -57.4770    23.9670    -3.7830 c6         1 RQE       0.202300
     11 C17        -56.7350    24.2780    -2.4870 c6         1 RQE       0.136100
     12 C18        -58.6170    23.8290    -1.0970 c6         1 RQE       0.136100
     13 C19        -58.7900    22.7070    -2.1200 c6         1 RQE       0.202300
     14 C20        -60.5090    23.5340    -6.4230 ca         1 RQE       0.184500
     15 C11        -62.6570    25.2900    -0.0360 ca         1 RQE      -0.117000
     16 C1         -57.6170    25.1520   -11.4740 c3         1 RQE       0.077900
     17 C10        -63.1240    24.1590    -0.7000 ca         1 RQE      -0.072200
     18 C13        -64.6590    25.1650     1.3490 ca         1 RQE      -0.138000
     19 C15        -59.7130    23.1610    -4.3760 ca         1 RQE       0.448900
     20 C21        -59.3110    24.2540    -9.8540 cd         1 RQE      -0.171000
     21 C4         -61.8780    23.5890    -8.1630 cc         1 RQE       0.405700
     22 N1         -58.2800    25.0590   -10.1870 na         1 RQE       0.126800
     23 N10        -59.4610    23.6400    -5.6070 nb         1 RQE      -0.277000
     24 N2         -57.8640    25.8120    -9.1520 nd         1 RQE      -0.515800
     25 N3         -60.5980    23.9230    -7.7450 na         1 RQE      -0.160100
     26 N4         -62.5900    23.0240    -7.2240 nd         1 RQE      -0.538100
     27 N6         -64.5500    22.4320    -1.1870 nd         1 RQE      -0.580100
     28 N7         -62.6220    23.4110    -1.7400 na         1 RQE      -0.309600
     29 N8         -60.8820    22.6140    -3.9550 nb         1 RQE      -0.387000
     30 N9         -58.7070    23.2450    -3.4670 nh         1 RQE      -0.783300
     31 O1         -57.6370    24.7930    -1.5140 os         1 RQE      -0.455000
     32 H4         -58.5380    25.9560    -7.1680 h4         1 RQE       0.058100
     33 H7         -64.1140    20.7140    -3.0940 h1         1 RQE       0.080700
     34 H8         -62.3760    20.7890    -2.7890 h1         1 RQE       0.080700
     35 H10        -63.1200    26.6580     1.5400 ha         1 RQE       0.112000
     36 H12        -66.0550    23.5650     0.9580 ha         1 RQE       0.127000
     37 H15        -56.8330    23.3880    -4.4550 h1         1 RQE       0.065950
     38 H14        -57.7350    24.8950    -4.2930 h1         1 RQE       0.065950
     39 H16        -56.2140    23.3950    -2.1010 h1         1 RQE       0.053700
     40 H17        -55.9910    25.0520    -2.6710 h1         1 RQE       0.053700
     41 H19        -59.5530    24.3780    -0.9730 h1         1 RQE       0.053700
     42 H18        -58.3290    23.4000    -0.1310 h1         1 RQE       0.053700
     43 H20        -59.7510    22.2250    -1.9790 h1         1 RQE       0.065950
     44 H21        -58.0170    21.9450    -1.9890 h1         1 RQE       0.065950
     45 H9         -61.7220    25.7610    -0.3110 ha         1 RQE       0.118000
     46 H3         -57.6450    26.1820   -11.8290 h1         1 RQE       0.059367
     47 H1         -56.5810    24.8270   -11.3830 h1         1 RQE       0.059367
     48 H2         -58.1390    24.5100   -12.1780 h1         1 RQE       0.059367
     49 H11        -65.2440    25.5810     2.1600 ha         1 RQE       0.113000
     50 H22        -59.7630    23.5760   -10.5590 h4         1 RQE       0.161000
     51 H5         -62.2040    23.8030    -9.1680 h5         1 RQE       0.068800
     52 H6         -63.8390    21.9440    -5.0180 hn         1 RQE       0.525000
     53 H13        -61.7590    23.5300    -2.2590 hn         1 RQE       0.383000
     54 N5         -63.0590    21.9420    -4.3810 nu         1 RQE      -0.924100
@<TRIPOS>BOND
     1     1     2 1   
     2     1    20 2   
     3     1    25 1   
     4     2    24 2   
     5     2    32 1   
     6     3     4 ar  
     7     3    14 ar  
     8     3    26 1   
     9     4    29 ar  
    10     4    54 1   
    11     5     9 ar  
    12     5    17 ar  
    13     5    27 1   
    14     6     7 1   
    15     6    27 2   
    16     6    28 1   
    17     7    33 1   
    18     7    34 1   
    19     7    54 1   
    20     8    15 ar  
    21     8    18 ar  
    22     8    35 1   
    23     9    18 ar  
    24     9    36 1   
    25    10    11 1   
    26    10    30 1   
    27    10    37 1   
    28    10    38 1   
    29    11    31 1   
    30    11    39 1   
    31    11    40 1   
    32    12    13 1   
    33    12    31 1   
    34    12    41 1   
    35    12    42 1   
    36    13    30 1   
    37    13    43 1   
    38    13    44 1   
    39    14    23 ar  
    40    14    25 1   
    41    15    17 ar  
    42    15    45 1   
    43    16    22 1   
    44    16    46 1   
    45    16    47 1   
    46    16    48 1   
    47    17    28 1   
    48    18    49 1   
    49    19    23 ar  
    50    19    29 ar  
    51    19    30 1   
    52    20    22 1   
    53    20    50 1   
    54    21    25 1   
    55    21    26 2   
    56    21    51 1   
    57    22    24 1   
    58    28    53 1   
    59    52    54 1   
@<TRIPOS>SUBSTRUCTURE
     1 RQE         1 TEMP              0 ****  ****    0 ROOT
