@<TRIPOS>MOLECULE
RQE
   54    59     1     0     0
SMALL
No Charge or Current Charge


@<TRIPOS>ATOM
      1 C3         -59.1510    24.0930    -8.5920 cc         1 RQE      -0.117200
      2 C2         -57.9150    24.5440    -8.1150 cc         1 RQE       0.272900
      3 C5         -61.6660    23.0060    -6.3840 ca         1 RQE      -0.139600
      4 C6         -62.1150    22.7650    -5.0740 ca         1 RQE       0.484900
      5 C9         -63.2410    23.0190    -0.2800 ca         1 RQE       0.063400
      6 C8         -63.7120    22.3990    -2.2990 cc         1 RQE       0.380800
      7 C7         -63.8680    21.5880    -3.5840 c3         1 RQE       0.221500
      8 C12        -63.1070    25.5160     0.9700 ca         1 RQE      -0.094000
      9 C14        -62.8550    23.0750     1.0670 ca         1 RQE      -0.048000
     10 C16        -58.0230    24.6120    -3.2860 c6         1 RQE       0.202300
     11 C17        -57.0870    24.5030    -2.0450 c6         1 RQE       0.136100
     12 C18        -58.8890    23.8520    -0.6050 c6         1 RQE       0.136100
     13 C19        -59.9260    23.9100    -1.7640 c6         1 RQE       0.202300
     14 C20        -60.3950    23.5070    -6.5380 ca         1 RQE       0.184500
     15 C11        -63.4930    25.4340    -0.3850 ca         1 RQE      -0.117000
     16 C1         -57.3400    24.9460   -11.5750 c3         1 RQE       0.077900
     17 C10        -63.5470    24.1610    -0.9630 ca         1 RQE      -0.072200
     18 C13        -62.7900    24.3410     1.6930 ca         1 RQE      -0.138000
     19 C15        -60.1010    23.5220    -4.2720 ca         1 RQE       0.448900
     20 C21        -59.1580    24.1620    -9.9500 cd         1 RQE      -0.171000
     21 C4         -61.4380    23.2060    -8.5350 cc         1 RQE       0.405700
     22 N1         -57.8810    24.6690   -10.2380 na         1 RQE       0.126800
     23 N10        -59.5880    23.7800    -5.4970 nb         1 RQE      -0.277000
     24 N2         -57.1090    24.9050    -9.0960 nd         1 RQE      -0.515800
     25 N3         -60.2710    23.6250    -7.8900 na         1 RQE      -0.160100
     26 N4         -62.3370    22.8090    -7.6080 nd         1 RQE      -0.538100
     27 N6         -63.3450    21.8960    -1.0970 nd         1 RQE      -0.580100
     28 N7         -63.8610    23.7850    -2.2310 na         1 RQE      -0.309600
     29 N8         -61.3260    23.0160    -4.0220 nb         1 RQE      -0.387000
     30 N9         -59.3010    23.8250    -3.1390 nh         1 RQE      -0.783300
     31 O1         -57.8070    24.7840    -0.8250 os         1 RQE      -0.455000
     32 H4         -57.5730    24.6210    -7.0910 h4         1 RQE       0.058100
     33 H7         -64.9300    21.3240    -3.6850 h1         1 RQE       0.080700
     34 H8         -63.3180    20.6460    -3.4550 h1         1 RQE       0.080700
     35 H10        -63.0520    26.4860     1.4590 ha         1 RQE       0.112000
     36 H12        -62.6070    22.1670     1.6120 ha         1 RQE       0.127000
     37 H15        -57.4480    24.2650    -4.1570 h1         1 RQE       0.065950
     38 H14        -58.2570    25.6730    -3.4550 h1         1 RQE       0.065950
     39 H16        -56.6610    23.4910    -1.9890 h1         1 RQE       0.053700
     40 H17        -56.2550    25.2150    -2.1450 h1         1 RQE       0.053700
     41 H19        -59.3850    24.0910     0.3470 h1         1 RQE       0.053700
     42 H18        -58.4790    22.8350    -0.5260 h1         1 RQE       0.053700
     43 H20        -60.5020    24.8440    -1.6730 h1         1 RQE       0.065950
     44 H21        -60.6310    23.0830    -1.6000 h1         1 RQE       0.065950
     45 H9         -63.7370    26.3270    -0.9560 ha         1 RQE       0.118000
     46 H3         -57.0360    25.9980   -11.6370 h1         1 RQE       0.059367
     47 H1         -56.4710    24.3040   -11.7590 h1         1 RQE       0.059367
     48 H2         -58.1050    24.7460   -12.3350 h1         1 RQE       0.059367
     49 H11        -62.4910    24.4110     2.7360 ha         1 RQE       0.113000
     50 H22        -59.8900    23.9200   -10.7120 h4         1 RQE       0.161000
     51 H5         -61.5800    23.2060    -9.6080 h5         1 RQE       0.068800
     52 H6         -63.9110    22.1000    -5.6890 hn         1 RQE       0.525000
     53 H13        -64.0790    24.3840    -3.0170 hn         1 RQE       0.383000
     54 N5         -63.3930    22.2790    -4.8260 nu         1 RQE      -0.924100
@<TRIPOS>BOND
     1     1     2 1   
     2     1    20 2   
     3     1    25 1   
     4     2    24 2   
     5     2    32 1   
     6     3     4 ar  
     7     3    14 ar  
     8     3    26 1   
     9     4    29 ar  
    10     4    54 1   
    11     5     9 ar  
    12     5    17 ar  
    13     5    27 1   
    14     6     7 1   
    15     6    27 2   
    16     6    28 1   
    17     7    33 1   
    18     7    34 1   
    19     7    54 1   
    20     8    15 ar  
    21     8    18 ar  
    22     8    35 1   
    23     9    18 ar  
    24     9    36 1   
    25    10    11 1   
    26    10    30 1   
    27    10    37 1   
    28    10    38 1   
    29    11    31 1   
    30    11    39 1   
    31    11    40 1   
    32    12    13 1   
    33    12    31 1   
    34    12    41 1   
    35    12    42 1   
    36    13    30 1   
    37    13    43 1   
    38    13    44 1   
    39    14    23 ar  
    40    14    25 1   
    41    15    17 ar  
    42    15    45 1   
    43    16    22 1   
    44    16    46 1   
    45    16    47 1   
    46    16    48 1   
    47    17    28 1   
    48    18    49 1   
    49    19    23 ar  
    50    19    29 ar  
    51    19    30 1   
    52    20    22 1   
    53    20    50 1   
    54    21    25 1   
    55    21    26 2   
    56    21    51 1   
    57    22    24 1   
    58    28    53 1   
    59    52    54 1   
@<TRIPOS>SUBSTRUCTURE
     1 RQE         1 TEMP              0 ****  ****    0 ROOT
