@<TRIPOS>MOLECULE
RQF
   55    58     1     0     0
SMALL
abcg2


@<TRIPOS>ATOM
      1 N1         -22.0350     6.7750    29.7420 n          1 RQF      -0.422800
      2 N3         -16.3380     4.5930    26.6720 nb         1 RQF      -0.645000
      3 C4         -21.9350     8.1870    29.4270 c3         1 RQF       0.012000
      4 C5         -22.4800     5.8630    28.6870 c6         1 RQF       0.115000
      5 C6         -21.8040     4.4960    28.8300 c6         1 RQF      -0.116400
      6 C7         -20.3050     4.6500    28.5520 c          1 RQF       0.604100
      7 C8         -18.6980     5.0270    26.7550 ca         1 RQF      -0.092000
      8 C10        -16.1710     5.6790    25.9530 ca         1 RQF       0.360900
      9 C13        -18.0590     8.5090    24.5160 ca         1 RQF       0.170000
     10 C15        -19.6100     7.0830    25.6540 ca         1 RQF      -0.084000
     11 C17        -22.0500     3.9800    30.2190 ca         1 RQF      -0.038300
     12 C20        -22.4660     3.0920    32.8360 ca         1 RQF      -0.104000
     13 C21        -22.3190     4.4450    32.5740 ca         1 RQF      -0.042000
     14 C22        -22.1160     4.8990    31.2720 ca         1 RQF      -0.126600
     15 O2         -21.6730     7.1370    31.9540 o          1 RQF      -0.539000
     16 C23        -21.9290     6.3590    31.0340 c          1 RQF       0.579600
     17 C3         -20.5590     8.6940    28.9900 c          1 RQF       0.577100
     18 O          -20.4640     9.8470    28.5620 o          1 RQF      -0.623100
     19 N          -19.5290     7.8510    29.1150 ns         1 RQF      -0.491900
     20 C2         -18.1530     8.2120    28.8050 c3         1 RQF       0.105000
     21 C1         -17.4160     8.8270    29.9950 c3         1 RQF      -0.096400
     22 C          -17.3060     7.8760    31.1840 c3         1 RQF      -0.092100
     23 C19        -22.3950     2.1940    31.7770 ca         1 RQF       0.144000
     24 CL         -22.5770     0.4850    32.0910 cl         1 RQF      -0.196000
     25 C18        -22.1840     2.6220    30.4730 ca         1 RQF      -0.101000
     26 O1         -19.4910     4.8360    29.4490 o          1 RQF      -0.568100
     27 N2         -19.9780     4.6510    27.2360 ns         1 RQF      -0.159000
     28 C16        -18.5470     6.2100    25.9870 ca         1 RQF      -0.035000
     29 C14        -19.3700     8.2210    24.9290 ca         1 RQF      -0.108000
     30 F          -17.8620     9.6390    23.7960 f          1 RQF      -0.173000
     31 C12        -16.9950     7.7110    24.8140 ca         1 RQF      -0.124000
     32 C11        -17.2280     6.5380    25.5680 ca         1 RQF      -0.075000
     33 C9         -17.5950     4.2720    27.0630 ca         1 RQF       0.344900
     34 H1         -22.2200     8.7700    30.3020 h1         1 RQF       0.085700
     35 H2         -22.6340     8.4250    28.6250 h1         1 RQF       0.085700
     36 H3         -22.2370     6.3120    27.7280 h1         1 RQF       0.055700
     37 H4         -23.5650     5.7320    28.7320 h1         1 RQF       0.055700
     38 H5         -22.2390     3.8220    28.0910 hc         1 RQF       0.079700
     39 H6         -15.1580     5.9230    25.6450 h4         1 RQF       0.028100
     40 H7         -20.6150     6.8620    25.9820 ha         1 RQF       0.113000
     41 H8         -22.6330     2.7360    33.8430 ha         1 RQF       0.139000
     42 H9         -22.3630     5.1620    33.3820 ha         1 RQF       0.146000
     43 H10        -19.6950     6.9300    29.4930 hn         1 RQF       0.336500
     44 H11        -18.1650     8.9030    27.9640 h1         1 RQF       0.052200
     45 H12        -17.6450     7.3020    28.4860 h1         1 RQF       0.052200
     46 H13        -16.4170     9.1140    29.6530 hc         1 RQF       0.048200
     47 H14        -17.9260     9.7470    30.2930 hc         1 RQF       0.048200
     48 H15        -16.7520     8.3350    32.0050 hc         1 RQF       0.036367
     49 H16        -18.2930     7.6000    31.5620 hc         1 RQF       0.036367
     50 H17        -16.7880     6.9560    30.9000 hc         1 RQF       0.036367
     51 H18        -22.1270     1.9060    29.6640 ha         1 RQF       0.131000
     52 H19        -20.7240     4.5550    26.5630 hn         1 RQF       0.156000
     53 H20        -20.1680     8.9050    24.6730 ha         1 RQF       0.142000
     54 H21        -15.9960     7.9700    24.4910 ha         1 RQF       0.141000
     55 H22        -17.7070     3.3710    27.6520 h4         1 RQF       0.037100
@<TRIPOS>BOND
     1     1     3 1   
     2     1     4 1   
     3     1    16 1   
     4     2     8 ar  
     5     2    33 ar  
     6     3    17 1   
     7     3    34 1   
     8     3    35 1   
     9     4     5 1   
    10     4    36 1   
    11     4    37 1   
    12     5     6 1   
    13     5    11 1   
    14     5    38 1   
    15     6    26 2   
    16     6    27 1   
    17     7    27 1   
    18     7    28 ar  
    19     7    33 ar  
    20     8    32 ar  
    21     8    39 1   
    22     9    29 ar  
    23     9    30 1   
    24     9    31 ar  
    25    10    28 ar  
    26    10    29 ar  
    27    10    40 1   
    28    11    14 ar  
    29    11    25 ar  
    30    12    13 ar  
    31    12    23 ar  
    32    12    41 1   
    33    13    14 ar  
    34    13    42 1   
    35    14    16 1   
    36    15    16 2   
    37    17    18 2   
    38    17    19 1   
    39    19    20 1   
    40    19    43 1   
    41    20    21 1   
    42    20    44 1   
    43    20    45 1   
    44    21    22 1   
    45    21    46 1   
    46    21    47 1   
    47    22    48 1   
    48    22    49 1   
    49    22    50 1   
    50    23    24 1   
    51    23    25 ar  
    52    25    51 1   
    53    27    52 1   
    54    28    32 ar  
    55    29    53 1   
    56    31    32 ar  
    57    31    54 1   
    58    33    55 1   
@<TRIPOS>SUBSTRUCTURE
     1 RQF         1 TEMP              0 ****  ****    0 ROOT
