@<TRIPOS>MOLECULE
RQF
   55    58     1     0     0
SMALL
No Charge or Current Charge


@<TRIPOS>ATOM
      1 N1         -21.9950     6.6330    29.4440 n          1 RQF      -0.422800
      2 N3         -16.6030     4.3590    26.6760 nb         1 RQF      -0.645000
      3 C4         -21.9230     8.0700    29.0160 c3         1 RQF       0.012000
      4 C5         -22.7480     5.6950    28.5810 c6         1 RQF       0.115000
      5 C6         -22.2050     4.2490    28.6890 c6         1 RQF      -0.116400
      6 C7         -20.8550     3.9840    27.9780 c          1 RQF       0.604100
      7 C8         -18.8760     5.2140    26.9170 ca         1 RQF      -0.092000
      8 C10        -16.3060     5.4380    25.9180 ca         1 RQF       0.360900
      9 C13        -17.8170     8.5510    24.5400 ca         1 RQF       0.170000
     10 C15        -19.5050     7.3390    25.8040 ca         1 RQF      -0.084000
     11 C17        -22.0750     3.8510    30.1650 ca         1 RQF      -0.038300
     12 C20        -21.8150     3.0810    32.8640 ca         1 RQF      -0.104000
     13 C21        -21.7300     4.4370    32.5100 ca         1 RQF      -0.042000
     14 C22        -21.8630     4.8360    31.1610 ca         1 RQF      -0.126600
     15 O2         -21.4400     7.1480    31.6130 o          1 RQF      -0.539000
     16 C23        -21.7660     6.2990    30.7960 c          1 RQF       0.579600
     17 C3         -20.5130     8.6700    28.8100 c          1 RQF       0.577100
     18 O          -20.3480     9.7940    28.3550 o          1 RQF      -0.623100
     19 N          -19.4510     7.8530    29.1340 ns         1 RQF      -0.491900
     20 C2         -18.0380     8.2080    28.9830 c3         1 RQF       0.105000
     21 C1         -17.5190     9.0880    30.1390 c3         1 RQF      -0.096400
     22 C          -17.6060     8.4130    31.5240 c3         1 RQF      -0.092100
     23 C19        -22.0320     2.1110    31.8750 ca         1 RQF       0.144000
     24 Cl         -22.1380     0.4120    32.3190 cl         1 RQF      -0.196000
     25 C18        -22.1610     2.4930    30.5320 ca         1 RQF      -0.101000
     26 O1         -20.4510     2.8390    27.8100 o          1 RQF      -0.568100
     27 N2         -20.1700     5.0930    27.5010 ns         1 RQF      -0.159000
     28 C16        -18.5580     6.3370    26.1170 ca         1 RQF      -0.035000
     29 C14        -19.1300     8.4450    25.0210 ca         1 RQF      -0.108000
     30 F          -17.4620     9.6150    23.7870 f          1 RQF      -0.173000
     31 C12        -16.8720     7.5570    24.8300 ca         1 RQF      -0.124000
     32 C11        -17.2410     6.4480    25.6170 ca         1 RQF      -0.075000
     33 C9         -17.8610     4.2560    27.1620 ca         1 RQF       0.344900
     34 H1         -22.4260     8.6900    29.7670 h1         1 RQF       0.085700
     35 H2         -22.4640     8.2010    28.0710 h1         1 RQF       0.085700
     36 H3         -22.7310     6.0300    27.5330 h1         1 RQF       0.055700
     37 H4         -23.7990     5.7050    28.9030 h1         1 RQF       0.055700
     38 H5         -22.9250     3.5620    28.2240 hc         1 RQF       0.079700
     39 H6         -15.2850     5.4960    25.5440 h4         1 RQF       0.028100
     40 H7         -20.5300     7.2750    26.1570 ha         1 RQF       0.113000
     41 H8         -21.7140     2.7810    33.9040 ha         1 RQF       0.139000
     42 H9         -21.5620     5.1790    33.2890 ha         1 RQF       0.146000
     43 H10        -19.6830     6.9570    29.5430 hn         1 RQF       0.336500
     44 H11        -17.9030     8.7380    28.0300 h1         1 RQF       0.052200
     45 H12        -17.4490     7.2830    28.9340 h1         1 RQF       0.052200
     46 H13        -16.4730     9.3490    29.9370 hc         1 RQF       0.048200
     47 H14        -18.0800    10.0310    30.1600 hc         1 RQF       0.048200
     48 H15        -17.1780     9.0670    32.2940 hc         1 RQF       0.036367
     49 H16        -18.6480     8.2060    31.7960 hc         1 RQF       0.036367
     50 H17        -17.0510     7.4680    31.5310 hc         1 RQF       0.036367
     51 H18        -22.3240     1.7300    29.7750 ha         1 RQF       0.131000
     52 H19        -20.6500     5.9730    27.6350 hn         1 RQF       0.156000
     53 H20        -19.8560     9.2190    24.7860 ha         1 RQF       0.142000
     54 H21        -15.8590     7.6500    24.4450 ha         1 RQF       0.141000
     55 H22        -18.0410     3.3910    27.7960 h4         1 RQF       0.037100
@<TRIPOS>BOND
     1     1     3 1   
     2     1     4 1   
     3     1    16 1   
     4     2     8 ar  
     5     2    33 ar  
     6     3    17 1   
     7     3    34 1   
     8     3    35 1   
     9     4     5 1   
    10     4    36 1   
    11     4    37 1   
    12     5     6 1   
    13     5    11 1   
    14     5    38 1   
    15     6    26 2   
    16     6    27 1   
    17     7    27 1   
    18     7    28 ar  
    19     7    33 ar  
    20     8    32 ar  
    21     8    39 1   
    22     9    29 ar  
    23     9    30 1   
    24     9    31 ar  
    25    10    28 ar  
    26    10    29 ar  
    27    10    40 1   
    28    11    14 ar  
    29    11    25 ar  
    30    12    13 ar  
    31    12    23 ar  
    32    12    41 1   
    33    13    14 ar  
    34    13    42 1   
    35    14    16 1   
    36    15    16 2   
    37    17    18 2   
    38    17    19 1   
    39    19    20 1   
    40    19    43 1   
    41    20    21 1   
    42    20    44 1   
    43    20    45 1   
    44    21    22 1   
    45    21    46 1   
    46    21    47 1   
    47    22    48 1   
    48    22    49 1   
    49    22    50 1   
    50    23    24 1   
    51    23    25 ar  
    52    25    51 1   
    53    27    52 1   
    54    28    32 ar  
    55    29    53 1   
    56    31    32 ar  
    57    31    54 1   
    58    33    55 1   
@<TRIPOS>SUBSTRUCTURE
     1 RQF         1 TEMP              0 ****  ****    0 ROOT
