@<TRIPOS>MOLECULE
RQG
   23    24     1     0     0
SMALL
No Charge or Current Charge


@<TRIPOS>ATOM
      1 C10         16.2750    24.4680    12.3020 c          1 RQG       0.724000
      2 C13         15.4350    21.2200    12.8390 ca         1 RQG      -0.096800
      3 C02         13.6650    20.5040    14.3110 ca         1 RQG      -0.129300
      4 C03         13.4720    19.3690    13.4820 ca         1 RQG      -0.105000
      5 C04         14.2700    19.1710    12.3330 ca         1 RQG      -0.128000
      6 C05         15.2510    20.1250    12.0390 ca         1 RQG       0.055100
      7 O06         16.1140    20.0960    10.9650 os         1 RQG      -0.198200
      8 C07         16.8880    21.2500    11.1100 cc         1 RQG      -0.126900
      9 C08         16.5030    21.9570    12.2360 cd         1 RQG      -0.036400
     10 C09         17.1050    23.2480    12.7360 c3         1 RQG      -0.167200
     11 O11         15.3530    24.8250    13.0220 o          1 RQG      -0.726000
     12 O12         16.5000    24.9560    11.2040 o          1 RQG      -0.726000
     13 C14         14.6640    21.4520    13.9850 ca         1 RQG      -0.027000
     14 H1          12.5040    19.7470    15.9860 hc         1 RQG       0.030033
     15 H2          13.3200    21.2810    16.3140 hc         1 RQG       0.030033
     16 H3          11.8770    21.2490    15.2860 hc         1 RQG       0.030033
     17 H4          12.7020    18.6410    13.7290 ha         1 RQG       0.091000
     18 H5          14.1270    18.3040    11.6940 ha         1 RQG       0.109000
     19 H6          17.6540    21.4430    10.3660 h4         1 RQG       0.224000
     20 H7          17.1250    23.1810    13.8300 hc         1 RQG       0.031700
     21 H8          18.1070    23.3120    12.2960 hc         1 RQG       0.031700
     22 H10         14.8280    22.3350    14.6000 ha         1 RQG       0.143000
     23 C01         12.7950    20.7060    15.5420 c3         1 RQG      -0.032800
@<TRIPOS>BOND
     1     1    10 1   
     2     1    11 1   
     3     1    12 1   
     4     2     6 ar  
     5     2     9 1   
     6     2    13 ar  
     7     3     4 ar  
     8     3    13 ar  
     9     3    23 1   
    10     4     5 ar  
    11     4    17 1   
    12     5     6 ar  
    13     5    18 1   
    14     6     7 1   
    15     7     8 1   
    16     8     9 2   
    17     8    19 1   
    18     9    10 1   
    19    10    20 1   
    20    10    21 1   
    21    13    22 1   
    22    14    23 1   
    23    15    23 1   
    24    16    23 1   
@<TRIPOS>SUBSTRUCTURE
     1 RQG         1 TEMP              0 ****  ****    0 ROOT
