@<TRIPOS>MOLECULE
RQG
   23    24     1     0     0
SMALL
abcg2


@<TRIPOS>ATOM
      1 C10         16.1530    24.3890    12.5490 c          1 RQG       0.724000
      2 C13         15.4790    21.2300    12.8250 ca         1 RQG      -0.096800
      3 C02         13.6560    20.5590    14.2340 ca         1 RQG      -0.129300
      4 C03         13.4790    19.4250    13.4210 ca         1 RQG      -0.105000
      5 C04         14.2730    19.1730    12.3140 ca         1 RQG      -0.128000
      6 C05         15.2700    20.0960    12.0450 ca         1 RQG       0.055100
      7 O06         16.1600    20.0600    11.0290 os         1 RQG      -0.198200
      8 C07         16.9360    21.1770    11.1600 cc         1 RQG      -0.126900
      9 C08         16.5850    21.9300    12.2230 cd         1 RQG      -0.036400
     10 C09         17.1600    23.2140    12.7030 c3         1 RQG      -0.167200
     11 O11         15.9230    25.0650    13.5700 o          1 RQG      -0.726000
     12 O12         15.6750    24.5500    11.4110 o          1 RQG      -0.726000
     13 C14         14.6600    21.4660    13.9300 ca         1 RQG      -0.027000
     14 H1          12.7520    19.9110    16.0800 hc         1 RQG       0.030033
     15 H2          13.0610    21.6430    15.9960 hc         1 RQG       0.030033
     16 H3          11.7190    20.9390    15.1010 hc         1 RQG       0.030033
     17 H4          12.6950    18.7200    13.6690 ha         1 RQG       0.091000
     18 H5          14.1140    18.3020    11.6910 ha         1 RQG       0.109000
     19 H6          17.7080    21.3040    10.4170 h4         1 RQG       0.224000
     20 H7          17.4580    23.1120    13.7490 hc         1 RQG       0.031700
     21 H8          18.0630    23.4480    12.1330 hc         1 RQG       0.031700
     22 H10         14.8020    22.3510    14.5410 ha         1 RQG       0.143000
     23 C01         12.7520    20.7760    15.4150 c3         1 RQG      -0.032800
@<TRIPOS>BOND
     1     1    10 1   
     2     1    11 1   
     3     1    12 1   
     4     2     6 ar  
     5     2     9 1   
     6     2    13 ar  
     7     3     4 ar  
     8     3    13 ar  
     9     3    23 1   
    10     4     5 ar  
    11     4    17 1   
    12     5     6 ar  
    13     5    18 1   
    14     6     7 1   
    15     7     8 1   
    16     8     9 2   
    17     8    19 1   
    18     9    10 1   
    19    10    20 1   
    20    10    21 1   
    21    13    22 1   
    22    14    23 1   
    23    15    23 1   
    24    16    23 1   
@<TRIPOS>SUBSTRUCTURE
     1 RQG         1 TEMP              0 ****  ****    0 ROOT
