@<TRIPOS>MOLECULE
RQH
   37    38     1     0     0
SMALL
abcg2


@<TRIPOS>ATOM
      1 C10         30.7050    -5.2510     2.7130 cc         1 RQH       0.226900
      2 C15         24.5770    -6.2880     3.7600 ca         1 RQH      -0.123500
      3 C17         23.1680    -7.1170     5.5100 ca         1 RQH       0.109000
      4 C01         25.3080    -2.6400     4.3710 c3         1 RQH      -0.084100
      5 C03         27.2120    -1.7420     5.7270 c3         1 RQH      -0.084100
      6 C04         27.4910    -2.0950     3.2640 c3         1 RQH      -0.084100
      7 C05         27.2450    -4.0630     4.8210 c          1 RQH       0.545100
      8 C07         27.2590    -5.0590     3.6360 c3         1 RQH       0.218300
      9 C09         29.7680    -5.2410     3.7000 cd         1 RQH      -0.201000
     10 C12         28.8350    -5.0230     1.7240 cd         1 RQH       0.400400
     11 C14         25.6940    -6.5710     4.5350 ca         1 RQH       0.110100
     12 C16         23.3080    -6.5570     4.2510 ca         1 RQH      -0.086000
     13 C18         24.2790    -7.4140     6.2850 ca         1 RQH      -0.086000
     14 C19         25.5450    -7.1280     5.7980 ca         1 RQH      -0.123500
     15 N08         28.5650    -5.0880     3.0540 na         1 RQH      -0.180500
     16 N11         30.1110    -5.1130     1.4860 nc         1 RQH      -0.663000
     17 O13         26.9640    -6.3570     4.0750 os         1 RQH      -0.348100
     18 CL1         21.5830    -7.4600     6.1220 cl         1 RQH      -0.196000
     19 H101        31.7730    -5.3500     2.8220 h4         1 RQH       0.041100
     20 H151        24.6720    -5.8790     2.7620 ha         1 RQH       0.132000
     21 H012        24.8030    -3.0070     5.2650 hc         1 RQH       0.044478
     22 H011        24.9640    -1.6220     4.1860 hc         1 RQH       0.044478
     23 H013        24.9840    -3.2490     3.5250 hc         1 RQH       0.044478
     24 H031        26.7290    -2.0630     6.6500 hc         1 RQH       0.044478
     25 H033        28.2890    -1.7280     5.8950 hc         1 RQH       0.044478
     26 H032        26.8930    -0.7190     5.5270 hc         1 RQH       0.044478
     27 H042        28.5790    -2.1410     3.3090 hc         1 RQH       0.044478
     28 H041        27.1600    -2.6210     2.3680 hc         1 RQH       0.044478
     29 H043        27.2090    -1.0500     3.1370 hc         1 RQH       0.044478
     30 H071        26.5690    -4.7320     2.8510 h2         1 RQH       0.069700
     31 H091        29.8550    -5.3350     4.7690 h4         1 RQH       0.172000
     32 H121        28.0520    -4.9040     0.9900 h5         1 RQH       0.052100
     33 H161        22.4390    -6.3380     3.6450 ha         1 RQH       0.133500
     34 H181        24.1650    -7.8540     7.2660 ha         1 RQH       0.133500
     35 H191        26.4180    -7.3430     6.3990 ha         1 RQH       0.132000
     36 O06         27.5260    -4.4780     5.9160 o          1 RQH      -0.478100
     37 C02         26.8370    -2.6300     4.5440 c3         1 RQH      -0.137000
@<TRIPOS>BOND
     1     1     9 2   
     2     1    16 1   
     3     1    19 1   
     4     2    11 ar  
     5     2    12 ar  
     6     2    20 1   
     7     3    12 ar  
     8     3    13 ar  
     9     3    18 1   
    10     4    21 1   
    11     4    22 1   
    12     4    23 1   
    13     4    37 1   
    14     5    24 1   
    15     5    25 1   
    16     5    26 1   
    17     5    37 1   
    18     6    27 1   
    19     6    28 1   
    20     6    29 1   
    21     6    37 1   
    22     7     8 1   
    23     7    36 2   
    24     7    37 1   
    25     8    15 1   
    26     8    17 1   
    27     8    30 1   
    28     9    15 1   
    29     9    31 1   
    30    10    15 1   
    31    10    16 2   
    32    10    32 1   
    33    11    14 ar  
    34    11    17 1   
    35    12    33 1   
    36    13    14 ar  
    37    13    34 1   
    38    14    35 1   
@<TRIPOS>SUBSTRUCTURE
     1 RQH         1 TEMP              0 ****  ****    0 ROOT
