@<TRIPOS>MOLECULE
RQH
   37    38     1     0     0
SMALL
No Charge or Current Charge


@<TRIPOS>ATOM
      1 C10         30.6530    -5.3070     2.7470 cc         1 RQH       0.226900
      2 C15         24.4690    -5.9420     4.4620 ca         1 RQH      -0.123500
      3 C17         23.1600    -7.5140     5.7870 ca         1 RQH       0.109000
      4 C01         25.4410    -2.3000     3.7370 c3         1 RQH      -0.084100
      5 C03         26.9470    -1.4540     5.5770 c3         1 RQH      -0.084100
      6 C04         27.9140    -1.9720     3.3050 c3         1 RQH      -0.084100
      7 C05         27.1260    -3.9020     4.8130 c          1 RQH       0.545100
      8 C07         27.1670    -5.0130     3.7090 c3         1 RQH       0.218300
      9 C09         29.7210    -5.2110     3.7430 cd         1 RQH      -0.201000
     10 C12         28.7580    -5.2000     1.7290 cd         1 RQH       0.400400
     11 C14         25.6400    -6.6810     4.7410 ca         1 RQH       0.110100
     12 C16         23.2320    -6.3600     4.9890 ca         1 RQH      -0.086000
     13 C18         24.3200    -8.2570     6.0560 ca         1 RQH      -0.086000
     14 C19         25.5570    -7.8410     5.5300 ca         1 RQH      -0.123500
     15 N08         28.5000    -5.1330     3.0900 na         1 RQH      -0.180500
     16 N11         30.0650    -5.2980     1.5130 nc         1 RQH      -0.663000
     17 O13         26.8810    -6.3250     4.2540 os         1 RQH      -0.348100
     18 Cl1         21.6130    -8.0320     6.4420 cl         1 RQH      -0.196000
     19 H101        31.7280    -5.3870     2.8410 h4         1 RQH       0.041100
     20 H151        24.4920    -5.0580     3.8330 ha         1 RQH       0.132000
     21 H012        24.6750    -2.6360     4.4470 hc         1 RQH       0.044478
     22 H011        25.2180    -1.2580     3.4740 hc         1 RQH       0.044478
     23 H013        25.3440    -2.8940     2.8210 hc         1 RQH       0.044478
     24 H031        26.2010    -1.7120     6.3390 hc         1 RQH       0.044478
     25 H033        27.9390    -1.4970     6.0430 hc         1 RQH       0.044478
     26 H032        26.7650    -0.4160     5.2720 hc         1 RQH       0.044478
     27 H042        28.9330    -2.1230     3.6810 hc         1 RQH       0.044478
     28 H041        27.8080    -2.5270     2.3650 hc         1 RQH       0.044478
     29 H043        27.7990    -0.9080     3.0650 hc         1 RQH       0.044478
     30 H071        26.4630    -4.7640     2.9100 h2         1 RQH       0.069700
     31 H091        29.8380    -5.1980     4.8210 h4         1 RQH       0.172000
     32 H121        27.9720    -5.1650     0.9840 h5         1 RQH       0.052100
     33 H161        22.3300    -5.7920     4.7760 ha         1 RQH       0.133500
     34 H181        24.2610    -9.1530     6.6700 ha         1 RQH       0.133500
     35 H191        26.4560    -8.4160     5.7390 ha         1 RQH       0.132000
     36 O06         27.2840    -4.1800     6.0000 o          1 RQH      -0.478100
     37 C02         26.8610    -2.4200     4.3570 c3         1 RQH      -0.137000
@<TRIPOS>BOND
     1     1     9 2   
     2     1    16 1   
     3     1    19 1   
     4     2    11 ar  
     5     2    12 ar  
     6     2    20 1   
     7     3    12 ar  
     8     3    13 ar  
     9     3    18 1   
    10     4    21 1   
    11     4    22 1   
    12     4    23 1   
    13     4    37 1   
    14     5    24 1   
    15     5    25 1   
    16     5    26 1   
    17     5    37 1   
    18     6    27 1   
    19     6    28 1   
    20     6    29 1   
    21     6    37 1   
    22     7     8 1   
    23     7    36 2   
    24     7    37 1   
    25     8    15 1   
    26     8    17 1   
    27     8    30 1   
    28     9    15 1   
    29     9    31 1   
    30    10    15 1   
    31    10    16 2   
    32    10    32 1   
    33    11    14 ar  
    34    11    17 1   
    35    12    33 1   
    36    13    14 ar  
    37    13    34 1   
    38    14    35 1   
@<TRIPOS>SUBSTRUCTURE
     1 RQH         1 TEMP              0 ****  ****    0 ROOT
