@<TRIPOS>MOLECULE
RQI
   33    35     1     0     0
SMALL
No Charge or Current Charge


@<TRIPOS>ATOM
      1 C17        -51.5040   -29.2130     8.2670 cc         1 RQI       0.401700
      2 C15        -49.6270   -29.2190     7.0940 ca         1 RQI      -0.038200
      3 C14        -48.3130   -29.2720     6.6290 ca         1 RQI      -0.171000
      4 C12        -48.0950   -29.0950     5.2480 ca         1 RQI       0.222000
      5 C11        -49.1880   -28.8700     4.3560 ca         1 RQI      -0.203600
      6 C10        -49.0330   -28.6730     2.8640 c          1 RQI       0.615700
      7 C20        -50.5040   -28.8240     4.8950 ca         1 RQI       0.024000
      8 C19        -50.6910   -29.0040     6.2740 ca         1 RQI       0.024400
      9 C03        -44.3930   -31.5880     2.2690 cc         1 RQI       0.249500
     10 C04        -44.6480   -32.3600     1.1520 cd         1 RQI      -0.218000
     11 C06        -45.3850   -30.0610     0.9910 cd         1 RQI       0.398700
     12 C07        -45.9600   -28.7220     0.6200 c3         1 RQI      -0.117700
     13 C08        -47.4700   -28.6260     0.8970 c3         1 RQI       0.114000
     14 F13        -46.8170   -29.1400     4.8130 f          1 RQI      -0.139000
     15 N09        -47.7760   -28.7800     2.3190 ns         1 RQI      -0.492900
     16 N16        -50.1210   -29.3530     8.3530 na         1 RQI      -0.326600
     17 N18        -51.8860   -28.9960     6.9900 nd         1 RQI      -0.562100
     18 N22        -44.8220   -30.2700     2.1700 nc         1 RQI      -0.608000
     19 O01        -43.4720   -31.4770     4.4640 o          1 RQI      -0.703500
     20 O21        -49.9950   -28.4250     2.1490 o          1 RQI      -0.649100
     21 O23        -43.3560   -33.3640     3.4650 o          1 RQI      -0.703500
     22 S05        -45.4580   -31.4350    -0.1010 ss         1 RQI      -0.196400
     23 H171       -52.1530   -29.2770     9.1330 h5         1 RQI       0.055800
     24 H141       -47.4800   -29.4430     7.3060 ha         1 RQI       0.151000
     25 H201       -51.3710   -28.6550     4.2600 ha         1 RQI       0.154000
     26 H041       -44.4060   -33.4050     1.0030 h4         1 RQI       0.165000
     27 H072       -45.4410   -27.9210     1.1600 hc         1 RQI       0.059700
     28 H071       -45.7870   -28.5350    -0.4460 hc         1 RQI       0.059700
     29 H082       -47.8390   -27.6480     0.5610 h1         1 RQI       0.044200
     30 H081       -47.9990   -29.4050     0.3330 h1         1 RQI       0.044200
     31 H091       -47.0190   -29.0020     2.9550 hn         1 RQI       0.362500
     32 H161       -49.5960   -29.5220     9.2020 hn         1 RQI       0.358000
     33 C02        -43.6920   -32.1840     3.4850 c          1 RQI       0.623500
@<TRIPOS>BOND
     1     1    16 1   
     2     1    17 2   
     3     1    23 1   
     4     2     3 ar  
     5     2     8 ar  
     6     2    16 1   
     7     3     4 ar  
     8     3    24 1   
     9     4     5 ar  
    10     4    14 1   
    11     5     6 1   
    12     5     7 ar  
    13     6    15 1   
    14     6    20 2   
    15     7     8 ar  
    16     7    25 1   
    17     8    17 1   
    18     9    10 2   
    19     9    18 1   
    20     9    33 1   
    21    10    22 1   
    22    10    26 1   
    23    11    12 1   
    24    11    18 2   
    25    11    22 1   
    26    12    13 1   
    27    12    27 1   
    28    12    28 1   
    29    13    15 1   
    30    13    29 1   
    31    13    30 1   
    32    15    31 1   
    33    16    32 1   
    34    19    33 1   
    35    21    33 1   
@<TRIPOS>SUBSTRUCTURE
     1 RQI         1 TEMP              0 ****  ****    0 ROOT
