@<TRIPOS>MOLECULE
RQI
   33    35     1     0     0
SMALL
abcg2


@<TRIPOS>ATOM
      1 C17        -51.4310   -29.1740     8.1840 cc         1 RQI       0.401700
      2 C15        -49.5410   -29.3480     7.0640 ca         1 RQI      -0.038200
      3 C14        -48.2480   -29.5260     6.5850 ca         1 RQI      -0.171000
      4 C12        -48.0690   -29.2940     5.2390 ca         1 RQI       0.222000
      5 C11        -49.0890   -28.9020     4.3480 ca         1 RQI      -0.203600
      6 C10        -48.9360   -28.6550     2.8730 c          1 RQI       0.615700
      7 C20        -50.3730   -28.7350     4.8710 ca         1 RQI       0.024000
      8 C19        -50.6040   -28.9540     6.2210 ca         1 RQI       0.024400
      9 C03        -44.4780   -31.4990     2.3500 cc         1 RQI       0.249500
     10 C04        -44.7480   -32.3300     1.3010 cd         1 RQI      -0.218000
     11 C06        -45.4270   -30.0140     0.9850 cd         1 RQI       0.398700
     12 C07        -46.0310   -28.7220     0.5340 c3         1 RQI      -0.117700
     13 C08        -47.5170   -28.6160     0.8870 c3         1 RQI       0.114000
     14 F13        -46.8010   -29.4680     4.7720 f          1 RQI      -0.139000
     15 N09        -47.7160   -28.7730     2.3190 ns         1 RQI      -0.492900
     16 N16        -50.1020   -29.4800     8.3070 na         1 RQI      -0.326600
     17 N18        -51.7770   -28.8560     6.9630 nd         1 RQI      -0.562100
     18 N22        -44.8710   -30.1910     2.1480 nc         1 RQI      -0.608000
     19 O01        -43.6440   -31.0790     4.5320 o          1 RQI      -0.703500
     20 O21        -49.9200   -28.3480     2.1910 o          1 RQI      -0.649100
     21 O23        -43.4870   -33.1590     3.7000 o          1 RQI      -0.703500
     22 S05        -45.5120   -31.4680     0.0290 ss         1 RQI      -0.196400
     23 H171       -52.0930   -29.2050     9.0360 h5         1 RQI       0.055800
     24 H141       -47.4180   -29.8290     7.2070 ha         1 RQI       0.151000
     25 H201       -51.1700   -28.4370     4.2050 ha         1 RQI       0.154000
     26 H041       -44.5290   -33.3810     1.2200 h4         1 RQI       0.165000
     27 H072       -45.4800   -27.9090     1.0100 hc         1 RQI       0.059700
     28 H071       -45.9310   -28.6100    -0.5450 hc         1 RQI       0.059700
     29 H082       -47.8970   -27.6450     0.5680 h1         1 RQI       0.044200
     30 H081       -48.0840   -29.3810     0.3490 h1         1 RQI       0.044200
     31 H091       -46.9350   -29.0810     2.8770 hn         1 RQI       0.362500
     32 H161       -49.6310   -29.7470     9.1580 hn         1 RQI       0.358000
     33 C02        -43.8100   -31.9460     3.6420 c          1 RQI       0.623500
@<TRIPOS>BOND
     1     1    16 1   
     2     1    17 2   
     3     1    23 1   
     4     2     3 ar  
     5     2     8 ar  
     6     2    16 1   
     7     3     4 ar  
     8     3    24 1   
     9     4     5 ar  
    10     4    14 1   
    11     5     6 1   
    12     5     7 ar  
    13     6    15 1   
    14     6    20 2   
    15     7     8 ar  
    16     7    25 1   
    17     8    17 1   
    18     9    10 2   
    19     9    18 1   
    20     9    33 1   
    21    10    22 1   
    22    10    26 1   
    23    11    12 1   
    24    11    18 2   
    25    11    22 1   
    26    12    13 1   
    27    12    27 1   
    28    12    28 1   
    29    13    15 1   
    30    13    29 1   
    31    13    30 1   
    32    15    31 1   
    33    16    32 1   
    34    19    33 1   
    35    21    33 1   
@<TRIPOS>SUBSTRUCTURE
     1 RQI         1 TEMP              0 ****  ****    0 ROOT
