@<TRIPOS>MOLECULE
RQJ
   26    26     1     0     0
SMALL
abcg2


@<TRIPOS>ATOM
      1 N           -9.7260   -18.7400   -16.8970 nj         1 RQJ      -0.369800
      2 CA          -8.9870   -17.9200   -15.9790 c3         1 RQJ      -0.034300
      3 C           -9.8080   -17.6180   -14.6870 c          1 RQJ       0.711000
      4 OXT         -9.3120   -16.7670   -13.9250 o          1 RQJ      -0.721500
      5 CB          -8.4830   -16.6570   -16.6710 c3         1 RQJ      -0.067400
      6 O          -10.8540   -18.2680   -14.5190 o          1 RQJ      -0.721500
      7 CAB         -9.9410   -20.0690   -16.9330 c          1 RQJ       0.576000
      8 CAC        -11.1070   -19.9160   -17.9020 cy         1 RQJ      -0.207400
      9 CAD        -10.8680   -18.4010   -17.7360 cy         1 RQJ       0.088000
     10 CAK         -7.5710   -16.9370   -17.8600 c3         1 RQJ      -0.077400
     11 CAL         -7.0820   -15.6770   -18.5600 c3         1 RQJ       0.152800
     12 NAM         -6.2340   -14.8670   -17.6950 n8         1 RQJ      -0.995200
     13 OAE         -9.3900   -20.9960   -16.3770 o          1 RQJ      -0.564000
     14 H1          -8.1130   -18.5080   -15.6700 h1         1 RQJ       0.059700
     15 H3          -7.9560   -16.0650   -15.9220 hc         1 RQJ       0.045700
     16 H4          -9.3360   -16.0500   -16.9980 hc         1 RQJ       0.045700
     17 H5         -12.0590   -20.2790   -17.5150 hc         1 RQJ       0.058200
     18 H6         -10.9430   -20.3200   -18.9000 hc         1 RQJ       0.058200
     19 H7         -10.6070   -17.8570   -18.6450 h1         1 RQJ       0.044700
     20 H8         -11.6610   -17.8730   -17.2060 h1         1 RQJ       0.044700
     21 H9          -8.0970   -17.5520   -18.5950 hc         1 RQJ       0.041200
     22 H10         -6.7070   -17.5210   -17.5270 hc         1 RQJ       0.041200
     23 H11         -7.9540   -15.1320   -18.9520 h1         1 RQJ       0.010200
     24 H12         -6.4900   -15.9700   -19.4300 h1         1 RQJ       0.010200
     25 H13         -5.8530   -14.0960   -18.2290 hn         1 RQJ       0.385000
     26 H14         -6.7960   -14.4370   -16.9710 hn         1 RQJ       0.385000
@<TRIPOS>BOND
     1     1     2 1   
     2     1     7 1   
     3     1     9 1   
     4     2     3 1   
     5     2     5 1   
     6     2    14 1   
     7     3     4 1   
     8     3     6 1   
     9     5    10 1   
    10     5    15 1   
    11     5    16 1   
    12     7     8 1   
    13     7    13 2   
    14     8     9 1   
    15     8    17 1   
    16     8    18 1   
    17     9    19 1   
    18     9    20 1   
    19    10    11 1   
    20    10    21 1   
    21    10    22 1   
    22    11    12 1   
    23    11    23 1   
    24    11    24 1   
    25    12    25 1   
    26    12    26 1   
@<TRIPOS>SUBSTRUCTURE
     1 RQJ         1 TEMP              0 ****  ****    0 ROOT
