@<TRIPOS>MOLECULE
RQJ
   26    26     1     0     0
SMALL
No Charge or Current Charge


@<TRIPOS>ATOM
      1 N           -9.8080   -18.8000   -16.8410 nj         1 RQJ      -0.369800
      2 CA          -8.9110   -17.9980   -15.9820 c3         1 RQJ      -0.034300
      3 C           -9.5010   -17.7330   -14.5620 c          1 RQJ       0.711000
      4 OXT         -8.8740   -18.1360   -13.5920 o          1 RQJ      -0.721500
      5 CB          -8.4980   -16.6700   -16.6740 c3         1 RQJ      -0.067400
      6 O          -10.5850   -17.1710   -14.4710 o          1 RQJ      -0.721500
      7 CAB        -10.3290   -20.0830   -16.6310 c          1 RQJ       0.576000
      8 CAC        -11.1800   -19.9960   -17.9230 cy         1 RQJ      -0.207400
      9 CAD        -10.6690   -18.5260   -18.0130 cy         1 RQJ       0.088000
     10 CAK         -7.5090   -16.8600   -17.8540 c3         1 RQJ      -0.077400
     11 CAL         -7.1480   -15.5550   -18.5980 c3         1 RQJ       0.152800
     12 NAM         -6.3960   -14.6110   -17.7530 n8         1 RQJ      -0.995200
     13 OAE        -10.1530   -20.9240   -15.7610 o          1 RQJ      -0.564000
     14 H1          -7.9950   -18.5810   -15.8200 h1         1 RQJ       0.059700
     15 H3          -8.0210   -16.0280   -15.9240 hc         1 RQJ       0.045700
     16 H4          -9.3940   -16.1360   -17.0160 hc         1 RQJ       0.045700
     17 H5         -12.2480   -20.1320   -17.7250 hc         1 RQJ       0.058200
     18 H6         -10.8210   -20.6870   -18.6910 hc         1 RQJ       0.058200
     19 H7         -10.1060   -18.2950   -18.9230 h1         1 RQJ       0.044700
     20 H8         -11.4280   -17.7630   -17.8070 h1         1 RQJ       0.044700
     21 H9          -7.9410   -17.5550   -18.5820 hc         1 RQJ       0.041200
     22 H10         -6.5900   -17.3330   -17.4860 hc         1 RQJ       0.041200
     23 H11         -8.0640   -15.0610   -18.9480 h1         1 RQJ       0.010200
     24 H12         -6.5290   -15.7950   -19.4730 h1         1 RQJ       0.010200
     25 H13         -6.2420   -13.7430   -18.2790 hn         1 RQJ       0.385000
     26 H14         -6.9950   -14.3190   -16.9730 hn         1 RQJ       0.385000
@<TRIPOS>BOND
     1     1     2 1   
     2     1     7 1   
     3     1     9 1   
     4     2     3 1   
     5     2     5 1   
     6     2    14 1   
     7     3     4 1   
     8     3     6 1   
     9     5    10 1   
    10     5    15 1   
    11     5    16 1   
    12     7     8 1   
    13     7    13 2   
    14     8     9 1   
    15     8    17 1   
    16     8    18 1   
    17     9    19 1   
    18     9    20 1   
    19    10    11 1   
    20    10    21 1   
    21    10    22 1   
    22    11    12 1   
    23    11    23 1   
    24    11    24 1   
    25    12    25 1   
    26    12    26 1   
@<TRIPOS>SUBSTRUCTURE
     1 RQJ         1 TEMP              0 ****  ****    0 ROOT
