@<TRIPOS>MOLECULE
RQK
   63    64     1     0     0
SMALL
abcg2


@<TRIPOS>ATOM
      1 C12         19.8820     6.0470    14.7860 c          1 RQK       0.590100
      2 C15         17.4300     5.5020    14.9640 c3         1 RQK      -0.094100
      3 C20         18.4210     9.6190    15.0350 c3         1 RQK       0.042700
      4 C30         22.2290     9.3840    14.7820 c3         1 RQK       0.099300
      5 C01         26.0540     8.5270     9.6510 c3         1 RQK      -0.082100
      6 C02         25.4830     7.5670    10.6830 c5         1 RQK      -0.079700
      7 C03         25.5350     8.0860    12.1220 c5         1 RQK      -0.086400
      8 C04         24.5360     7.1800    12.8690 c5         1 RQK       0.064700
      9 C06         23.9960     7.2750    10.4980 c5         1 RQK       0.100000
     10 C07         22.3000     6.3860    11.9970 c          1 RQK       0.607300
     11 C09         21.8790     5.8500    13.3390 ce         1 RQK      -0.029600
     12 C10         22.6400     5.0230    14.0590 c2         1 RQK      -0.335000
     13 C14         18.4600     6.6290    14.8430 c3         1 RQK       0.074700
     14 C18         17.9850     8.8840    13.7690 c          1 RQK       0.607100
     15 C21         18.0660    11.1240    15.0470 c3         1 RQK       0.092300
     16 C23         16.5960    11.4180    14.7060 c          1 RQK       0.575100
     17 C27         20.1980     9.4180    16.7820 c3         1 RQK       0.089300
     18 C28         20.7590     9.4050    14.3630 c          1 RQK       0.603100
     19 C31         22.7870    10.7970    14.8680 c3         1 RQK      -0.107100
     20 C33         23.9600     7.9060    14.0690 c          1 RQK       0.582100
     21 N05         23.5600     6.8220    11.8270 n          1 RQK      -0.398800
     22 N11         20.5720     6.2540    13.6410 ns         1 RQK      -0.387100
     23 N16         18.1340     7.5430    13.7670 n          1 RQK      -0.302300
     24 N26         19.8370     9.4170    15.3590 n          1 RQK      -0.420800
     25 O08         21.4710     6.4000    11.0820 o          1 RQK      -0.588100
     26 O13         20.3110     5.4390    15.7580 o          1 RQK      -0.604100
     27 O17         17.7560     6.9120    12.5730 oh         1 RQK      -0.446100
     28 O19         17.4560     9.4410    12.8070 o          1 RQK      -0.574100
     29 O22         18.8970    11.8880    14.2130 oh         1 RQK      -0.637000
     30 O25         16.3370    12.2140    13.8070 o          1 RQK      -0.581100
     31 O29         20.4590     9.4210    13.1760 o          1 RQK      -0.541100
     32 O32         22.9070     8.6540    13.7380 os         1 RQK      -0.418100
     33 O34         24.4510     7.8470    15.1720 o          1 RQK      -0.476000
     34 H152        17.6620     4.9110    15.8480 hc         1 RQK       0.058367
     35 H153        16.4330     5.9270    15.0720 hc         1 RQK       0.058367
     36 H151        17.4490     4.8530    14.0890 hc         1 RQK       0.058367
     37 H201        17.8600     9.1690    15.8550 h1         1 RQK       0.054700
     38 H241        14.6900    11.0070    15.2790 hn         1 RQK       0.318500
     39 H242        15.8960    10.2400    16.2470 hn         1 RQK       0.318500
     40 H301        22.3790     8.8490    15.7140 h1         1 RQK       0.078700
     41 H012        27.1130     8.7120     9.8380 hc         1 RQK       0.041700
     42 H011        25.9560     8.1210     8.6420 hc         1 RQK       0.041700
     43 H013        25.5290     9.4850     9.6850 hc         1 RQK       0.041700
     44 H031        26.5260     8.0360    12.5690 hc         1 RQK       0.066200
     45 H032        25.1910     9.1230    12.1500 hc         1 RQK       0.066200
     46 H041        25.0510     6.2990    13.2480 h1         1 RQK       0.088700
     47 H061        23.4480     8.1790    10.2140 h1         1 RQK       0.066700
     48 H062        23.7940     6.5060     9.7540 h1         1 RQK       0.066700
     49 H102        22.2940     4.5890    14.9820 ha         1 RQK       0.191500
     50 H101        23.6240     4.7610    13.7030 ha         1 RQK       0.191500
     51 H141        18.4310     7.2070    15.7630 h1         1 RQK       0.070700
     52 H211        18.2200    11.4490    16.0820 h1         1 RQK       0.057700
     53 H272        19.2820     9.3990    17.3670 h1         1 RQK       0.047700
     54 H273        20.7780     8.5320    17.0360 h1         1 RQK       0.047700
     55 H271        20.7550    10.3130    17.0580 h1         1 RQK       0.047700
     56 H311        22.2580    11.3700    15.6290 hc         1 RQK       0.058367
     57 H312        23.8430    10.7600    15.1330 hc         1 RQK       0.058367
     58 H313        22.6730    11.3000    13.9080 hc         1 RQK       0.058367
     59 H111        20.1100     6.7620    12.8990 hn         1 RQK       0.367500
     60 H171        17.3940     7.6670    12.0590 ho         1 RQK       0.485000
     61 H221        18.3120    12.2520    13.5250 ho         1 RQK       0.490000
     62 H021        26.0270     6.6190    10.6390 hc         1 RQK       0.057700
     63 N24         15.6640    10.8020    15.4440 nt         1 RQK      -0.599000
@<TRIPOS>BOND
     1     1    13 1   
     2     1    22 1   
     3     1    26 2   
     4     2    13 1   
     5     2    34 1   
     6     2    35 1   
     7     2    36 1   
     8     3    14 1   
     9     3    15 1   
    10     3    24 1   
    11     3    37 1   
    12     4    18 1   
    13     4    19 1   
    14     4    32 1   
    15     4    40 1   
    16     5     6 1   
    17     5    41 1   
    18     5    42 1   
    19     5    43 1   
    20     6     7 1   
    21     6     9 1   
    22     6    62 1   
    23     7     8 1   
    24     7    44 1   
    25     7    45 1   
    26     8    20 1   
    27     8    21 1   
    28     8    46 1   
    29     9    21 1   
    30     9    47 1   
    31     9    48 1   
    32    10    11 1   
    33    10    21 1   
    34    10    25 2   
    35    11    12 2   
    36    11    22 1   
    37    12    49 1   
    38    12    50 1   
    39    13    23 1   
    40    13    51 1   
    41    14    23 1   
    42    14    28 2   
    43    15    16 1   
    44    15    29 1   
    45    15    52 1   
    46    16    30 2   
    47    16    63 1   
    48    17    24 1   
    49    17    53 1   
    50    17    54 1   
    51    17    55 1   
    52    18    24 1   
    53    18    31 2   
    54    19    56 1   
    55    19    57 1   
    56    19    58 1   
    57    20    32 1   
    58    20    33 2   
    59    22    59 1   
    60    23    27 1   
    61    27    60 1   
    62    29    61 1   
    63    38    63 1   
    64    39    63 1   
@<TRIPOS>SUBSTRUCTURE
     1 RQK         1 TEMP              0 ****  ****    0 ROOT
