@<TRIPOS>MOLECULE
RQK
   63    64     1     0     0
SMALL
No Charge or Current Charge


@<TRIPOS>ATOM
      1 C12         19.7910     5.9930    14.7800 c          1 RQK       0.590100
      2 C15         17.2610     5.6040    14.8340 c3         1 RQK      -0.094100
      3 C20         18.3000     9.7550    14.9060 c3         1 RQK       0.042700
      4 C30         22.2680     9.3170    14.8170 c3         1 RQK       0.099300
      5 C01         26.2640     8.3920     9.5120 c3         1 RQK      -0.082100
      6 C02         25.6030     7.5270    10.6050 c5         1 RQK      -0.079700
      7 C03         25.6060     8.1650    12.0170 c5         1 RQK      -0.086400
      8 C04         24.6770     7.1930    12.8040 c5         1 RQK       0.064700
      9 C06         24.0840     7.2870    10.4060 c5         1 RQK       0.100000
     10 C07         22.3300     6.4400    12.0070 c          1 RQK       0.607300
     11 C09         21.9270     5.8480    13.3570 ce         1 RQK      -0.029600
     12 C10         22.7600     5.1350    14.1560 c2         1 RQK      -0.335000
     13 C14         18.3880     6.6600    14.7190 c3         1 RQK       0.074700
     14 C18         17.8400     8.9480    13.6420 c          1 RQK       0.607100
     15 C21         17.8870    11.2640    14.8810 c3         1 RQK       0.092300
     16 C23         16.3350    11.4540    14.9890 c          1 RQK       0.575100
     17 C27         20.0180     9.4300    16.7600 c3         1 RQK       0.089300
     18 C28         20.7950     9.5480    14.3430 c          1 RQK       0.603100
     19 C31         22.9710    10.6390    15.2100 c3         1 RQK      -0.107100
     20 C33         24.1300     7.9170    14.0770 c          1 RQK       0.582100
     21 N05         23.6750     6.8140    11.7470 n          1 RQK      -0.398800
     22 N11         20.5740     6.1690    13.6550 ns         1 RQK      -0.387100
     23 N16         18.1900     7.5640    13.5390 n          1 RQK      -0.302300
     24 N26         19.7430     9.5780    15.3080 n          1 RQK      -0.420800
     25 O08         21.4800     6.6230    11.1420 o          1 RQK      -0.588100
     26 O13         20.1840     5.4060    15.7800 o          1 RQK      -0.604100
     27 O17         18.0270     6.8890    12.2670 oh         1 RQK      -0.446100
     28 O19         17.2670     9.4990    12.7060 o          1 RQK      -0.574100
     29 O22         18.4600    11.9420    13.7330 oh         1 RQK      -0.637000
     30 O25         15.6480    11.9480    14.1090 o          1 RQK      -0.581100
     31 O29         20.5420     9.6460    13.1480 o          1 RQK      -0.541100
     32 O32         23.0490     8.7050    13.7590 os         1 RQK      -0.418100
     33 O34         24.5570     7.7720    15.2150 o          1 RQK      -0.476000
     34 H152        17.3560     5.0400    15.7700 hc         1 RQK       0.058367
     35 H153        16.2770     6.0880    14.8300 hc         1 RQK       0.058367
     36 H151        17.3020     4.8890    14.0040 hc         1 RQK       0.058367
     37 H201        17.7090     9.3040    15.7120 h1         1 RQK       0.054700
     38 H241        14.7520    11.1630    16.2530 hn         1 RQK       0.318500
     39 H242        16.3030    10.6670    16.8960 hn         1 RQK       0.318500
     40 H301        22.2260     8.6490    15.6860 h1         1 RQK       0.078700
     41 H012        27.3260     8.5580     9.7300 hc         1 RQK       0.041700
     42 H011        26.1960     7.9060     8.5310 hc         1 RQK       0.041700
     43 H013        25.7810     9.3740     9.4330 hc         1 RQK       0.041700
     44 H031        26.6090     8.2260    12.4540 hc         1 RQK       0.066200
     45 H032        25.1980     9.1840    11.9920 hc         1 RQK       0.066200
     46 H041        25.2460     6.3140    13.1310 h1         1 RQK       0.088700
     47 H061        23.5570     8.2140    10.1430 h1         1 RQK       0.066700
     48 H062        23.8850     6.5410     9.6260 h1         1 RQK       0.066700
     49 H102        22.4460     4.7320    15.1180 ha         1 RQK       0.191500
     50 H101        23.7750     4.8770    13.8610 ha         1 RQK       0.191500
     51 H141        18.3320     7.2600    15.6330 h1         1 RQK       0.070700
     52 H211        18.2910    11.7180    15.7960 h1         1 RQK       0.057700
     53 H272        19.1040     9.5920    17.3470 h1         1 RQK       0.047700
     54 H273        20.3890     8.4180    16.9690 h1         1 RQK       0.047700
     55 H271        20.7620    10.1650    17.0870 h1         1 RQK       0.047700
     56 H311        22.4000    11.1820    15.9700 hc         1 RQK       0.058367
     57 H312        23.9720    10.4470    15.6150 hc         1 RQK       0.058367
     58 H313        23.0730    11.2930    14.3350 hc         1 RQK       0.058367
     59 H111        20.0990     6.6600    12.8970 hn         1 RQK       0.367500
     60 H171        17.0530     6.7940    12.1380 ho         1 RQK       0.485000
     61 H221        18.0440    11.5350    12.9360 ho         1 RQK       0.490000
     62 H021        26.1390     6.5690    10.6190 hc         1 RQK       0.057700
     63 N24         15.7490    11.0460    16.1420 nt         1 RQK      -0.599000
@<TRIPOS>BOND
     1     1    13 1   
     2     1    22 1   
     3     1    26 2   
     4     2    13 1   
     5     2    34 1   
     6     2    35 1   
     7     2    36 1   
     8     3    14 1   
     9     3    15 1   
    10     3    24 1   
    11     3    37 1   
    12     4    18 1   
    13     4    19 1   
    14     4    32 1   
    15     4    40 1   
    16     5     6 1   
    17     5    41 1   
    18     5    42 1   
    19     5    43 1   
    20     6     7 1   
    21     6     9 1   
    22     6    62 1   
    23     7     8 1   
    24     7    44 1   
    25     7    45 1   
    26     8    20 1   
    27     8    21 1   
    28     8    46 1   
    29     9    21 1   
    30     9    47 1   
    31     9    48 1   
    32    10    11 1   
    33    10    21 1   
    34    10    25 2   
    35    11    12 2   
    36    11    22 1   
    37    12    49 1   
    38    12    50 1   
    39    13    23 1   
    40    13    51 1   
    41    14    23 1   
    42    14    28 2   
    43    15    16 1   
    44    15    29 1   
    45    15    52 1   
    46    16    30 2   
    47    16    63 1   
    48    17    24 1   
    49    17    53 1   
    50    17    54 1   
    51    17    55 1   
    52    18    24 1   
    53    18    31 2   
    54    19    56 1   
    55    19    57 1   
    56    19    58 1   
    57    20    32 1   
    58    20    33 2   
    59    22    59 1   
    60    23    27 1   
    61    27    60 1   
    62    29    61 1   
    63    38    63 1   
    64    39    63 1   
@<TRIPOS>SUBSTRUCTURE
     1 RQK         1 TEMP              0 ****  ****    0 ROOT
