@<TRIPOS>MOLECULE
RQL
   56    60     1     0     0
SMALL
abcg2


@<TRIPOS>ATOM
      1 C2         -64.9830    26.2970     0.9840 ca         1 RQL       0.137000
      2 C3         -64.2100    25.8290    -0.0690 ca         1 RQL      -0.098000
      3 C4         -66.6470    24.5440     0.6700 ca         1 RQL      -0.033000
      4 C5         -65.8830    24.0610    -0.3880 ca         1 RQL       0.070400
      5 C6         -64.6770    24.7090    -0.7420 ca         1 RQL      -0.066200
      6 C7         -65.0750    22.9800    -2.0570 cc         1 RQL       0.388800
      7 C8         -64.8470    21.9990    -3.1660 c3         1 RQL       0.221500
      8 C10        -61.6720    24.2320    -4.7440 ca         1 RQL       0.446900
      9 C17        -64.1940    24.4170    -8.3170 cc         1 RQL       0.409700
     10 C16        -63.8100    23.8080    -6.3100 ca         1 RQL      -0.138600
     11 C15        -62.6770    24.5130    -6.7070 ca         1 RQL       0.180500
     12 C14        -58.9120    25.8530    -2.9570 c3         1 RQL       0.147600
     13 C12        -58.3570    24.2330    -4.8340 c3         1 RQL      -0.096400
     14 C11        -59.4200    25.1460    -4.2020 c3         1 RQL       0.247500
     15 N9         -61.4860    27.1010   -10.4720 nc         1 RQL      -0.510800
     16 C1         -66.1880    25.6630     1.3480 ca         1 RQL       0.097000
     17 C18        -62.1170    25.6840    -8.8410 cd         1 RQL      -0.121200
     18 C19        -60.7380    25.7940    -8.8130 cc         1 RQL      -0.140000
     19 C21        -62.5350    26.5220    -9.8910 cd         1 RQL       0.240900
     20 C9         -63.7910    23.2980    -4.9950 ca         1 RQL       0.487900
     21 N1         -64.1890    23.9880    -1.8030 na         1 RQL      -0.299600
     22 N10        -66.1010    22.9830    -1.2320 nd         1 RQL      -0.573100
     23 N2         -64.8300    22.6030    -4.4890 nu         1 RQL      -0.925100
     24 N3         -62.7140    23.5230    -4.2350 nb         1 RQL      -0.396000
     25 N4         -60.6460    24.4310    -3.8860 nu         1 RQL      -0.923100
     26 N5         -61.5850    24.7500    -5.9790 nb         1 RQL      -0.285000
     27 N6         -64.7440    23.7590    -7.3300 nd         1 RQL      -0.540100
     28 N7         -62.9330    24.9050    -8.0060 na         1 RQL      -0.154100
     29 N8         -60.4100    26.6510    -9.8040 na         1 RQL       0.123800
     30 CL1        -67.1440    26.2760     2.6730 cl         1 RQL      -0.187000
     31 CL2        -64.4240    27.7010     1.8530 cl         1 RQL      -0.186000
     32 H1         -63.2880    26.3230    -0.3400 ha         1 RQL       0.138000
     33 H2         -67.5740    24.0680     0.9610 ha         1 RQL       0.146000
     34 H5         -65.6530    21.2690    -3.1410 h1         1 RQL       0.081700
     35 H4         -63.9030    21.4760    -2.9990 h1         1 RQL       0.081700
     36 H17        -64.6280    24.5810    -9.2900 h5         1 RQL       0.071800
     37 H14        -58.8140    25.1450    -2.1280 h1         1 RQL       0.030200
     38 H15        -57.9210    26.2680    -3.1680 h1         1 RQL       0.030200
     39 H11        -57.1760    22.4530    -4.4710 hc         1 RQL       0.035033
     40 H12        -57.3530    23.4770    -3.0490 hc         1 RQL       0.035033
     41 H13        -58.7050    22.4800    -3.5940 hc         1 RQL       0.035033
     42 H10        -57.5110    24.8550    -5.1400 hc         1 RQL       0.052700
     43 H9         -58.7860    23.8150    -5.7470 hc         1 RQL       0.052700
     44 H8         -59.6800    25.9120    -4.9340 h1         1 RQL       0.094700
     45 H18        -60.0000    25.3430    -8.1740 h4         1 RQL       0.175000
     46 H20        -58.9920    28.1860    -9.9260 h1         1 RQL       0.059367
     47 H21        -58.3550    26.5650    -9.5690 h1         1 RQL       0.059367
     48 H19        -58.9030    26.9610   -11.2130 h1         1 RQL       0.059367
     49 H22        -63.5370    26.7180   -10.2390 h4         1 RQL       0.045100
     50 H3         -63.3580    24.1410    -2.3680 hn         1 RQL       0.394000
     51 H6         -65.6530    22.5150    -5.0620 hn         1 RQL       0.527000
     52 H7         -60.7290    23.9820    -2.9880 hn         1 RQL       0.498000
     53 H16        -59.5780    27.2470    -1.7500 ho         1 RQL       0.445000
     54 O1         -59.8300    26.8940    -2.6120 oh         1 RQL      -0.661000
     55 C13        -57.8710    23.0990    -3.9320 c3         1 RQL      -0.093100
     56 C20        -59.0830    27.1230   -10.1520 c3         1 RQL       0.077900
@<TRIPOS>BOND
     1     1     2 ar  
     2     1    16 ar  
     3     1    31 1   
     4     2     5 ar  
     5     2    32 1   
     6     3     4 ar  
     7     3    16 ar  
     8     3    33 1   
     9     4     5 ar  
    10     4    22 1   
    11     5    21 1   
    12     6     7 1   
    13     6    21 1   
    14     6    22 2   
    15     7    23 1   
    16     7    34 1   
    17     7    35 1   
    18     8    24 ar  
    19     8    25 1   
    20     8    26 ar  
    21     9    27 2   
    22     9    28 1   
    23     9    36 1   
    24    10    11 ar  
    25    10    20 ar  
    26    10    27 1   
    27    11    26 ar  
    28    11    28 1   
    29    12    14 1   
    30    12    37 1   
    31    12    38 1   
    32    12    54 1   
    33    13    14 1   
    34    13    42 1   
    35    13    43 1   
    36    13    55 1   
    37    14    25 1   
    38    14    44 1   
    39    15    19 2   
    40    15    29 1   
    41    16    30 1   
    42    17    18 2   
    43    17    19 1   
    44    17    28 1   
    45    18    29 1   
    46    18    45 1   
    47    19    49 1   
    48    20    23 1   
    49    20    24 ar  
    50    21    50 1   
    51    23    51 1   
    52    25    52 1   
    53    29    56 1   
    54    39    55 1   
    55    40    55 1   
    56    41    55 1   
    57    46    56 1   
    58    47    56 1   
    59    48    56 1   
    60    53    54 1   
@<TRIPOS>SUBSTRUCTURE
     1 RQL         1 TEMP              0 ****  ****    0 ROOT
