@<TRIPOS>MOLECULE
RQL
   56    60     1     0     0
SMALL
No Charge or Current Charge


@<TRIPOS>ATOM
      1 C2         -65.3770    26.7920     0.5410 ca         1 RQL       0.137000
      2 C3         -64.4850    26.1490    -0.3440 ca         1 RQL      -0.098000
      3 C4         -66.9970    24.9640     0.2610 ca         1 RQL      -0.033000
      4 C5         -66.0930    24.3470    -0.6140 ca         1 RQL       0.070400
      5 C6         -64.8910    24.9280    -0.8950 ca         1 RQL      -0.066200
      6 C7         -65.0930    23.0140    -1.9950 cc         1 RQL       0.388800
      7 C8         -64.7470    21.8500    -2.9200 c3         1 RQL       0.221500
      8 C10        -61.4510    23.9450    -4.6600 ca         1 RQL       0.446900
      9 C17        -64.3310    24.3430    -8.0550 cc         1 RQL       0.409700
     10 C16        -63.6470    23.6330    -6.1250 ca         1 RQL      -0.138600
     11 C15        -62.6020    24.4090    -6.5790 ca         1 RQL       0.180500
     12 C14        -58.4340    25.2660    -2.7160 c3         1 RQL       0.147600
     13 C12        -58.2340    24.4650    -5.1750 c3         1 RQL      -0.096400
     14 C11        -59.1810    25.0040    -4.0650 c3         1 RQL       0.247500
     15 N9         -61.6940    26.8560   -10.4700 nc         1 RQL      -0.510800
     16 C1         -66.6330    26.1980     0.8430 ca         1 RQL       0.097000
     17 C18        -62.2840    25.6570    -8.6570 cd         1 RQL      -0.121200
     18 C19        -61.0380    26.1250    -8.3470 cc         1 RQL      -0.140000
     19 C21        -62.6480    26.1160    -9.9370 cd         1 RQL       0.240900
     20 C9         -63.5160    23.0170    -4.8660 ca         1 RQL       0.487900
     21 N1         -64.2500    24.1000    -1.7620 na         1 RQL      -0.299600
     22 N10        -66.2430    23.1410    -1.2940 nd         1 RQL      -0.573100
     23 N2         -64.5420    22.2430    -4.3460 nu         1 RQL      -0.925100
     24 N3         -62.4100    23.1760    -4.1230 nb         1 RQL      -0.396000
     25 N4         -60.3360    24.0970    -3.8620 nu         1 RQL      -0.923100
     26 N5         -61.4840    24.5820    -5.8470 nb         1 RQL      -0.285000
     27 N6         -64.7330    23.5780    -7.0200 nd         1 RQL      -0.540100
     28 N7         -63.0580    24.8480    -7.8000 na         1 RQL      -0.154100
     29 N8         -60.7100    26.8570    -9.4900 na         1 RQL       0.123800
     30 Cl1        -67.7640    26.9850     1.9470 cl         1 RQL      -0.187000
     31 Cl2        -64.9040    28.3330     1.2570 cl         1 RQL      -0.186000
     32 H1         -63.5210    26.5890    -0.5860 ha         1 RQL       0.138000
     33 H2         -67.9550    24.5030     0.4860 ha         1 RQL       0.146000
     34 H5         -65.5630    21.1170    -2.8530 h1         1 RQL       0.081700
     35 H4         -63.8480    21.3550    -2.5290 h1         1 RQL       0.081700
     36 H17        -64.8840    24.5540    -8.9620 h5         1 RQL       0.071800
     37 H14        -57.9980    24.3260    -2.3540 h1         1 RQL       0.030200
     38 H15        -57.6060    25.9620    -2.9020 h1         1 RQL       0.030200
     39 H11        -56.9620    22.7860    -5.7440 hc         1 RQL       0.035033
     40 H12        -56.9300    23.1360    -4.0080 hc         1 RQL       0.035033
     41 H13        -58.3380    22.3190    -4.7290 hc         1 RQL       0.035033
     42 H10        -57.4400    25.2020    -5.3420 hc         1 RQL       0.052700
     43 H9         -58.7840    24.3990    -6.1210 hc         1 RQL       0.052700
     44 H8         -59.5540    25.9840    -4.4000 h1         1 RQL       0.094700
     45 H18        -60.3770    26.0360    -7.4970 h4         1 RQL       0.175000
     46 H20        -59.6760    28.6610    -9.8270 h1         1 RQL       0.059367
     47 H21        -58.7840    27.4490    -8.8610 h1         1 RQL       0.059367
     48 H19        -58.9720    27.2210   -10.6240 h1         1 RQL       0.059367
     49 H22        -63.5630    25.9370   -10.4880 h4         1 RQL       0.045100
     50 H3         -63.3440    24.2370    -2.1920 hn         1 RQL       0.394000
     51 H6         -65.3550    22.2120    -4.9650 hn         1 RQL       0.527000
     52 H7         -60.4310    23.6970    -2.9310 hn         1 RQL       0.498000
     53 H16        -58.7780    25.9570    -0.9040 ho         1 RQL       0.445000
     54 O1         -59.3170    25.8080    -1.7130 oh         1 RQL      -0.661000
     55 C13        -57.5780    23.0930    -4.8910 c3         1 RQL      -0.093100
     56 C20        -59.4570    27.5920    -9.7140 c3         1 RQL       0.077900
@<TRIPOS>BOND
     1     1     2 ar  
     2     1    16 ar  
     3     1    31 1   
     4     2     5 ar  
     5     2    32 1   
     6     3     4 ar  
     7     3    16 ar  
     8     3    33 1   
     9     4     5 ar  
    10     4    22 1   
    11     5    21 1   
    12     6     7 1   
    13     6    21 1   
    14     6    22 2   
    15     7    23 1   
    16     7    34 1   
    17     7    35 1   
    18     8    24 ar  
    19     8    25 1   
    20     8    26 ar  
    21     9    27 2   
    22     9    28 1   
    23     9    36 1   
    24    10    11 ar  
    25    10    20 ar  
    26    10    27 1   
    27    11    26 ar  
    28    11    28 1   
    29    12    14 1   
    30    12    37 1   
    31    12    38 1   
    32    12    54 1   
    33    13    14 1   
    34    13    42 1   
    35    13    43 1   
    36    13    55 1   
    37    14    25 1   
    38    14    44 1   
    39    15    19 2   
    40    15    29 1   
    41    16    30 1   
    42    17    18 2   
    43    17    19 1   
    44    17    28 1   
    45    18    29 1   
    46    18    45 1   
    47    19    49 1   
    48    20    23 1   
    49    20    24 ar  
    50    21    50 1   
    51    23    51 1   
    52    25    52 1   
    53    29    56 1   
    54    39    55 1   
    55    40    55 1   
    56    41    55 1   
    57    46    56 1   
    58    47    56 1   
    59    48    56 1   
    60    53    54 1   
@<TRIPOS>SUBSTRUCTURE
     1 RQL         1 TEMP              0 ****  ****    0 ROOT
