@<TRIPOS>MOLECULE
RQN
   34    35     1     0     0
SMALL
bcc


@<TRIPOS>ATOM
      1 C10          8.6450    -0.2550    20.8440 ca         1 RQN      -0.187000
      2 C13          5.9000     0.4330    18.3550 c          1 RQN       0.687700
      3 C17          6.6800     0.3540    22.0550 ca         1 RQN       0.102900
      4 C20         12.1840    -0.5800    23.7300 ca         1 RQN       0.106900
      5 C01         14.0150    -2.8290    25.2960 c3         1 RQN      -0.087100
      6 C03         12.3390    -1.9530    23.6340 ca         1 RQN      -0.066300
      7 C04         11.1910    -2.7050    23.3960 ca         1 RQN      -0.196000
      8 C05          9.9390    -2.1180    23.2590 ca         1 RQN       0.117100
      9 C07          9.8410    -0.7300    23.3550 ca         1 RQN       0.074100
     10 C09          8.0180    -0.0320    22.0610 ca         1 RQN       0.126100
     11 C11          7.9420    -0.0950    19.6600 ca         1 RQN      -0.056000
     12 C12          6.6010     0.2710    19.6650 ca         1 RQN      -0.163600
     13 C16          5.9720     0.5080    20.8870 ca         1 RQN      -0.120000
     14 C19         10.9610     0.0450    23.5870 ca         1 RQN      -0.130000
     15 F18          6.0820     0.5890    23.2300 f          1 RQN      -0.128900
     16 N14          4.5600     0.3600    18.3830 nt         1 RQN      -0.670000
     17 O06          8.8080    -2.8080    23.0310 oh         1 RQN      -0.474100
     18 O08          8.6100    -0.1310    23.2720 os         1 RQN      -0.215200
     19 O15          6.5310     0.6270    17.3250 o          1 RQN      -0.604100
     20 H101         9.6870    -0.5440    20.8080 ha         1 RQN       0.149000
     21 H013        14.9790    -3.3280    25.3980 hc         1 RQN       0.039700
     22 H012        14.0720    -1.8820    25.8330 hc         1 RQN       0.039700
     23 H011        13.2640    -3.4490    25.7870 hc         1 RQN       0.039700
     24 H022        13.6540    -3.5860    23.3150 hc         1 RQN       0.054200
     25 H021        14.4600    -2.0370    23.3410 hc         1 RQN       0.054200
     26 H041        11.2810    -3.7830    23.3190 ha         1 RQN       0.139000
     27 H111         8.4510    -0.2690    18.7220 ha         1 RQN       0.159000
     28 H161         4.9410     0.8320    20.9530 ha         1 RQN       0.148000
     29 H191        10.8760     1.1220    23.6610 ha         1 RQN       0.170000
     30 H141         4.0430     0.4460    17.5230 hn         1 RQN       0.314000
     31 H142         4.0490     0.0420    19.1880 hn         1 RQN       0.314000
     32 H061         8.9920    -3.7540    22.9970 ho         1 RQN       0.431000
     33 F21         13.2670     0.1840    23.9670 f          1 RQN      -0.138900
     34 C02         13.6730    -2.6190    23.8220 c3         1 RQN      -0.029100
@<TRIPOS>BOND
     1     1    10 ar  
     2     1    11 ar  
     3     1    20 1   
     4     2    12 1   
     5     2    16 1   
     6     2    19 2   
     7     3    10 ar  
     8     3    13 ar  
     9     3    15 1   
    10     4     6 ar  
    11     4    14 ar  
    12     4    33 1   
    13     5    21 1   
    14     5    22 1   
    15     5    23 1   
    16     5    34 1   
    17     6     7 ar  
    18     6    34 1   
    19     7     8 ar  
    20     7    26 1   
    21     8     9 ar  
    22     8    17 1   
    23     9    14 ar  
    24     9    18 1   
    25    10    18 1   
    26    11    12 ar  
    27    11    27 1   
    28    12    13 ar  
    29    13    28 1   
    30    14    29 1   
    31    16    30 1   
    32    16    31 1   
    33    17    32 1   
    34    24    34 1   
    35    25    34 1   
@<TRIPOS>SUBSTRUCTURE
     1 RQN         1 TEMP              0 ****  ****    0 ROOT
