@<TRIPOS>MOLECULE
RQN
   34    35     1     0     0
SMALL
No Charge or Current Charge


@<TRIPOS>ATOM
      1 C10          8.6610    -0.0920    20.8010 ca         1 RQN      -0.169000
      2 C13          5.7740     0.2150    18.3030 c          1 RQN       0.620700
      3 C17          6.6220     0.3240    22.0580 ca         1 RQN       0.138000
      4 C20         12.2880    -0.5290    23.8480 ca         1 RQN       0.142000
      5 C01         14.0140    -2.9790    25.3360 c3         1 RQN      -0.087100
      6 C03         12.3820    -1.9290    23.6900 ca         1 RQN      -0.066300
      7 C04         11.2200    -2.6670    23.3810 ca         1 RQN      -0.178000
      8 C05          9.9830    -2.0170    23.2230 ca         1 RQN       0.117100
      9 C07          9.9050    -0.6110    23.3710 ca         1 RQN       0.074100
     10 C09          8.0090     0.0880    22.0370 ca         1 RQN       0.126100
     11 C11          7.9270    -0.0500    19.6020 ca         1 RQN      -0.038000
     12 C12          6.5310     0.1770    19.6130 ca         1 RQN      -0.163600
     13 C16          5.8860     0.3670    20.8610 ca         1 RQN      -0.102000
     14 C19         11.0570     0.1250    23.6930 ca         1 RQN      -0.112000
     15 F18          5.9800     0.5120    23.2350 f          1 RQN      -0.164000
     16 N14          4.4420     0.4350    18.3370 nt         1 RQN      -0.603000
     17 O06          8.8690    -2.7610    22.9420 oh         1 RQN      -0.513100
     18 O08          8.7110     0.0620    23.2270 os         1 RQN      -0.215200
     19 O15          6.3190     0.0570    17.2220 o          1 RQN      -0.604100
     20 H101         9.7340    -0.2610    20.7600 ha         1 RQN       0.131000
     21 H013        14.9730    -3.5040    25.4260 hc         1 RQN       0.039700
     22 H012        14.0680    -2.0610    25.9330 hc         1 RQN       0.039700
     23 H011        13.2300    -3.6200    25.7570 hc         1 RQN       0.039700
     24 H022        13.7160    -3.5880    23.2860 hc         1 RQN       0.054200
     25 H021        14.5340    -2.0490    23.4540 hc         1 RQN       0.054200
     26 H041        11.2850    -3.7470    23.2700 ha         1 RQN       0.121000
     27 H111         8.4510    -0.1950    18.6580 ha         1 RQN       0.141000
     28 H161         4.8170     0.5490    20.9240 ha         1 RQN       0.130000
     29 H191        10.9970     1.2030    23.8160 ha         1 RQN       0.152000
     30 H141         3.9280     0.4620    17.4700 hn         1 RQN       0.314000
     31 H142         3.9710     0.5680    19.2170 hn         1 RQN       0.314000
     32 H061         9.1260    -3.7060    22.8900 ho         1 RQN       0.470000
     33 F21         13.3840     0.2000    24.1550 f          1 RQN      -0.174000
     34 C02         13.7140    -2.6540    23.8610 c3         1 RQN      -0.029100
@<TRIPOS>BOND
     1     1    10 ar  
     2     1    11 ar  
     3     1    20 1   
     4     2    12 1   
     5     2    16 1   
     6     2    19 2   
     7     3    10 ar  
     8     3    13 ar  
     9     3    15 1   
    10     4     6 ar  
    11     4    14 ar  
    12     4    33 1   
    13     5    21 1   
    14     5    22 1   
    15     5    23 1   
    16     5    34 1   
    17     6     7 ar  
    18     6    34 1   
    19     7     8 ar  
    20     7    26 1   
    21     8     9 ar  
    22     8    17 1   
    23     9    14 ar  
    24     9    18 1   
    25    10    18 1   
    26    11    12 ar  
    27    11    27 1   
    28    12    13 ar  
    29    13    28 1   
    30    14    29 1   
    31    16    30 1   
    32    16    31 1   
    33    17    32 1   
    34    24    34 1   
    35    25    34 1   
@<TRIPOS>SUBSTRUCTURE
     1 RQN         1 TEMP              0 ****  ****    0 ROOT
