@<TRIPOS>MOLECULE
RQO
   44    46     1     0     0
SMALL
No Charge or Current Charge


@<TRIPOS>ATOM
      1 N1         -17.0110     4.0670    24.2320 nb         1 RQO      -0.650000
      2 C4         -17.0470     8.4130    26.4200 ca         1 RQO      -0.074000
      3 C5         -16.5040     7.5140    25.4870 ca         1 RQO      -0.088000
      4 C6         -17.0350     6.2170    25.3650 ca         1 RQO      -0.083000
      5 C7         -16.5170     5.3140    24.4150 ca         1 RQO       0.359900
      6 C8         -18.0430     3.6800    25.0160 ca         1 RQO       0.313900
      7 C10        -19.7510     3.8410    28.1730 c          1 RQO       0.600100
      8 C13        -22.4030     5.7020    28.3640 ca         1 RQO      -0.107000
      9 C15        -22.8860     7.2130    30.2110 ca         1 RQO      -0.095000
     10 C17        -21.7230     5.1140    30.6250 ca         1 RQO      -0.087000
     11 C16        -22.2700     6.3170    31.0990 ca         1 RQO       0.119000
     12 C14        -22.9530     6.9050    28.8420 ca         1 RQO      -0.094000
     13 C12        -21.7850     4.7990    29.2530 ca         1 RQO      -0.082300
     14 C11        -21.1440     3.5200    28.7220 c3         1 RQO      -0.108100
     15 O1         -18.7810     4.0010    28.9060 o          1 RQO      -0.575100
     16 C9         -18.6160     4.5000    26.0110 ca         1 RQO      -0.074000
     17 C18        -18.1110     5.8120    26.1820 ca         1 RQO      -0.010000
     18 C19        -18.6600     6.7290    27.1060 ca         1 RQO      -0.065000
     19 C3         -18.1200     8.0270    27.2510 ca         1 RQO      -0.114600
     20 C2         -18.7090     9.0300    28.2250 c          1 RQO       0.606700
     21 O          -18.7340    10.2230    27.9450 o          1 RQO      -0.607100
     22 N          -19.3120     8.5600    29.4170 n          1 RQO      -0.403800
     23 C1         -18.7750     7.3690    30.1170 c3         1 RQO       0.084300
     24 C          -20.1040     9.4920    30.2500 c3         1 RQO       0.084300
     25 H1         -16.6280     9.4140    26.4990 ha         1 RQO       0.130000
     26 H2         -15.6770     7.8300    24.8540 ha         1 RQO       0.122000
     27 H3         -15.6890     5.6010    23.7680 h4         1 RQO       0.024100
     28 H4         -18.4150     2.6690    24.8530 h4         1 RQO       0.023100
     29 H5         -22.4530     5.4770    27.3010 ha         1 RQO       0.115000
     30 H6         -23.3070     8.1440    30.5820 ha         1 RQO       0.134000
     31 H7         -21.2390     4.4360    31.3230 ha         1 RQO       0.137000
     32 H8         -23.4270     7.5990    28.1500 ha         1 RQO       0.127000
     33 H9         -21.7740     3.1070    27.9250 hc         1 RQO       0.074200
     34 H10        -21.0460     2.7860    29.5290 hc         1 RQO       0.074200
     35 H11        -20.5300     3.7710    26.2890 hn         1 RQO       0.160000
     36 H12        -19.5330     6.4560    27.6900 ha         1 RQO       0.129000
     37 H13        -18.6870     7.5700    31.1930 h1         1 RQO       0.047200
     38 H14        -19.4520     6.5190    29.9760 h1         1 RQO       0.047200
     39 H15        -17.7800     7.1080    29.7350 h1         1 RQO       0.047200
     40 H16        -20.6110     8.9450    31.0550 h1         1 RQO       0.047200
     41 H17        -19.4430    10.2490    30.6910 h1         1 RQO       0.047200
     42 H18        -20.8630     9.9890    29.6330 h1         1 RQO       0.047200
     43 N2         -19.6820     3.9880    26.7970 ns         1 RQO      -0.172000
     44 Cl         -22.1670     6.7130    32.8100 cl         1 RQO      -0.209000
@<TRIPOS>BOND
     1     1     5 ar  
     2     1     6 ar  
     3     2     3 ar  
     4     2    19 ar  
     5     2    25 1   
     6     3     4 ar  
     7     3    26 1   
     8     4     5 ar  
     9     4    17 ar  
    10     5    27 1   
    11     6    16 ar  
    12     6    28 1   
    13     7    14 1   
    14     7    15 2   
    15     7    43 1   
    16     8    12 ar  
    17     8    13 ar  
    18     8    29 1   
    19     9    11 ar  
    20     9    12 ar  
    21     9    30 1   
    22    10    11 ar  
    23    10    13 ar  
    24    10    31 1   
    25    11    44 1   
    26    12    32 1   
    27    13    14 1   
    28    14    33 1   
    29    14    34 1   
    30    16    17 ar  
    31    16    43 1   
    32    17    18 ar  
    33    18    19 ar  
    34    18    36 1   
    35    19    20 1   
    36    20    21 2   
    37    20    22 1   
    38    22    23 1   
    39    22    24 1   
    40    23    37 1   
    41    23    38 1   
    42    23    39 1   
    43    24    40 1   
    44    24    41 1   
    45    24    42 1   
    46    35    43 1   
@<TRIPOS>SUBSTRUCTURE
     1 RQO         1 TEMP              0 ****  ****    0 ROOT
