@<TRIPOS>MOLECULE
RQO
   44    46     1     0     0
SMALL
abcg2


@<TRIPOS>ATOM
      1 N1         -16.9880     4.1180    24.3440 nb         1 RQO      -0.650000
      2 C4         -17.2010     8.3670    26.6140 ca         1 RQO      -0.074000
      3 C5         -16.5880     7.5200    25.7310 ca         1 RQO      -0.088000
      4 C6         -17.0950     6.2150    25.5240 ca         1 RQO      -0.083000
      5 C7         -16.5240     5.3230    24.5840 ca         1 RQO       0.359900
      6 C8         -18.0660     3.6990    25.0550 ca         1 RQO       0.313900
      7 C10        -19.8440     3.7400    28.0270 c          1 RQO       0.600100
      8 C13        -22.4570     5.5990    28.2340 ca         1 RQO      -0.107000
      9 C15        -22.7810     7.2070    30.0050 ca         1 RQO      -0.095000
     10 C17        -21.6480     5.1090    30.4460 ca         1 RQO      -0.087000
     11 C16        -22.1350     6.3370    30.8710 ca         1 RQO       0.119000
     12 C14        -22.9380     6.8240    28.6770 ca         1 RQO      -0.094000
     13 C12        -21.8080     4.7320    29.1140 ca         1 RQO      -0.082300
     14 C11        -21.2100     3.4340    28.6200 c3         1 RQO      -0.108100
     15 O1         -18.8460     3.8570    28.7260 o          1 RQO      -0.575100
     16 C9         -18.7000     4.4670    25.9990 ca         1 RQO      -0.074000
     17 C18        -18.2330     5.7830    26.2550 ca         1 RQO      -0.010000
     18 C19        -18.8450     6.6740    27.1640 ca         1 RQO      -0.065000
     19 C3         -18.3400     7.9380    27.3390 ca         1 RQO      -0.114600
     20 C2         -19.0570     8.9340    28.2060 c          1 RQO       0.606700
     21 O          -19.5710     9.9160    27.6580 o          1 RQO      -0.607100
     22 N          -19.1290     8.7010    29.5310 n          1 RQO      -0.403800
     23 C1         -18.4610     7.6030    30.2190 c3         1 RQO       0.084300
     24 C          -19.8780     9.6090    30.3890 c3         1 RQO       0.084300
     25 H1         -16.8290     9.3730    26.7600 ha         1 RQO       0.130000
     26 H2         -15.7170     7.8410    25.1730 ha         1 RQO       0.122000
     27 H3         -15.6550     5.6450    24.0180 h4         1 RQO       0.024100
     28 H4         -18.4260     2.6990    24.8480 h4         1 RQO       0.023100
     29 H5         -22.5790     5.3140    27.1960 ha         1 RQO       0.115000
     30 H6         -23.1510     8.1590    30.3580 ha         1 RQO       0.134000
     31 H7         -21.1420     4.4550    31.1430 ha         1 RQO       0.137000
     32 H8         -23.4420     7.4890    27.9880 ha         1 RQO       0.127000
     33 H9         -21.8620     2.9670    27.8820 hc         1 RQO       0.074200
     34 H10        -21.0630     2.7450    29.4500 hc         1 RQO       0.074200
     35 H11        -20.6530     3.7270    26.1470 hn         1 RQO       0.160000
     36 H12        -19.7200     6.3630    27.7150 ha         1 RQO       0.129000
     37 H13        -17.9070     8.0020    31.0710 h1         1 RQO       0.047200
     38 H14        -19.1920     6.8810    30.5870 h1         1 RQO       0.047200
     39 H15        -17.7680     7.0940    29.5580 h1         1 RQO       0.047200
     40 H16        -20.7730     9.1140    30.7690 h1         1 RQO       0.047200
     41 H17        -19.2570     9.9030    31.2360 h1         1 RQO       0.047200
     42 H18        -20.1650    10.4880    29.8220 h1         1 RQO       0.047200
     43 N2         -19.8330     3.9630    26.6860 ns         1 RQO      -0.172000
     44 CL         -21.9200     6.8010    32.5460 cl         1 RQO      -0.209000
@<TRIPOS>BOND
     1     1     5 ar  
     2     1     6 ar  
     3     2     3 ar  
     4     2    19 ar  
     5     2    25 1   
     6     3     4 ar  
     7     3    26 1   
     8     4     5 ar  
     9     4    17 ar  
    10     5    27 1   
    11     6    16 ar  
    12     6    28 1   
    13     7    14 1   
    14     7    15 2   
    15     7    43 1   
    16     8    12 ar  
    17     8    13 ar  
    18     8    29 1   
    19     9    11 ar  
    20     9    12 ar  
    21     9    30 1   
    22    10    11 ar  
    23    10    13 ar  
    24    10    31 1   
    25    11    44 1   
    26    12    32 1   
    27    13    14 1   
    28    14    33 1   
    29    14    34 1   
    30    16    17 ar  
    31    16    43 1   
    32    17    18 ar  
    33    18    19 ar  
    34    18    36 1   
    35    19    20 1   
    36    20    21 2   
    37    20    22 1   
    38    22    23 1   
    39    22    24 1   
    40    23    37 1   
    41    23    38 1   
    42    23    39 1   
    43    24    40 1   
    44    24    41 1   
    45    24    42 1   
    46    35    43 1   
@<TRIPOS>SUBSTRUCTURE
     1 RQO         1 TEMP              0 ****  ****    0 ROOT
