@<TRIPOS>MOLECULE
RQP
   41    42     1     0     0
SMALL
bcc


@<TRIPOS>ATOM
      1 C10          1.6500    -2.3450    -0.4860 c3         1 RQP      -0.079400
      2 C13         -0.8330    -2.0060    -0.7390 c3         1 RQP      -0.029100
      3 C15         -2.4600    -0.2490    -1.5190 ca         1 RQP      -0.090500
      4 C17         -4.1860     0.5650    -0.0990 ca         1 RQP       0.140900
      5 C20         -2.7200    -1.1370     0.6870 ca         1 RQP      -0.090500
      6 C21          0.7010    -0.0290    -0.7970 c          1 RQP       0.714500
      7 C01          4.4870     2.1910     0.0460 c3         1 RQP       0.121700
      8 C03          2.2440     2.6970     0.4610 c3         1 RQP       0.108400
      9 C06          0.4090     0.2520     1.4490 c          1 RQP       0.827500
     10 C09          0.4790    -1.4090    -0.1860 c5         1 RQP       0.038400
     11 C11          2.9870    -1.8630     0.0500 c3         1 RQP       0.137400
     12 C14         -2.0290    -1.1230    -0.5230 ca         1 RQP      -0.113300
     13 C16         -3.5380     0.6010    -1.3170 ca         1 RQP      -0.168500
     14 C19         -3.7990    -0.2940     0.9110 ca         1 RQP      -0.168500
     15 N05          0.6120     0.8770     0.2140 n          1 RQP      -0.511400
     16 N08          0.3710    -1.0710     1.2120 ns         1 RQP      -0.586900
     17 O02          3.1510     1.9780    -0.3300 os         1 RQP      -0.404600
     18 O07          0.3020     0.8360     2.5050 o          1 RQP      -0.629500
     19 O12          3.9690    -2.7890    -0.3610 oh         1 RQP      -0.600800
     20 O22          0.8910     0.2040    -1.9660 o          1 RQP      -0.571500
     21 H1           1.4190    -3.3290    -0.0670 hc         1 RQP       0.069700
     22 H2           1.7140    -2.4690    -1.5700 hc         1 RQP       0.069700
     23 H3          -0.6920    -2.2000    -1.8040 hc         1 RQP       0.066200
     24 H4          -0.9830    -2.9760    -0.2590 hc         1 RQP       0.066200
     25 H5          -1.9510    -0.2300    -2.4740 ha         1 RQP       0.137500
     26 H6          -2.4220    -1.8200     1.4720 ha         1 RQP       0.137500
     27 H7           5.1190     1.5810    -0.5980 h1         1 RQP       0.029367
     28 H8           4.7860     3.2400    -0.0690 h1         1 RQP       0.029367
     29 H9           4.6700     1.9010     1.0870 h1         1 RQP       0.029367
     30 H10          2.3510     3.7810     0.3160 h1         1 RQP       0.036200
     31 H11          2.4080     2.5000     1.5280 h1         1 RQP       0.036200
     32 H12          0.1210     2.8350     0.7030 h1         1 RQP       0.075200
     33 H13          0.6230     2.5690    -0.9590 h1         1 RQP       0.075200
     34 H14          3.2060    -0.8570    -0.3310 h1         1 RQP       0.030200
     35 H15          2.9430    -1.7870     1.1420 h1         1 RQP       0.030200
     36 H16         -3.8680     1.2730    -2.0980 ha         1 RQP       0.152000
     37 H17         -4.3310    -0.3100     1.8540 ha         1 RQP       0.152000
     38 H18          0.2050    -1.7430     1.9450 hn         1 RQP       0.347500
     39 H19          4.8140    -2.5130     0.0050 ho         1 RQP       0.407000
     40 C04          0.8320     2.2990     0.0750 c3         1 RQP       0.118000
     41 F18         -5.2320     1.3830     0.1070 f          1 RQP      -0.142900
@<TRIPOS>BOND
     1     1    10 1   
     2     1    11 1   
     3     1    21 1   
     4     1    22 1   
     5     2    10 1   
     6     2    12 1   
     7     2    23 1   
     8     2    24 1   
     9     3    12 ar  
    10     3    13 ar  
    11     3    25 1   
    12     4    13 ar  
    13     4    14 ar  
    14     4    41 1   
    15     5    12 ar  
    16     5    14 ar  
    17     5    26 1   
    18     6    10 1   
    19     6    15 1   
    20     6    20 2   
    21     7    17 1   
    22     7    27 1   
    23     7    28 1   
    24     7    29 1   
    25     8    17 1   
    26     8    30 1   
    27     8    31 1   
    28     8    40 1   
    29     9    15 1   
    30     9    16 1   
    31     9    18 2   
    32    10    16 1   
    33    11    19 1   
    34    11    34 1   
    35    11    35 1   
    36    13    36 1   
    37    14    37 1   
    38    15    40 1   
    39    16    38 1   
    40    19    39 1   
    41    32    40 1   
    42    33    40 1   
@<TRIPOS>SUBSTRUCTURE
     1 RQP         1 TEMP              0 ****  ****    0 ROOT
