@<TRIPOS>MOLECULE
RQP
   41    42     1     0     0
SMALL
No Charge or Current Charge


@<TRIPOS>ATOM
      1 C10          1.6210    -2.3880    -0.4040 c3         1 RQP      -0.079400
      2 C13         -0.8680    -1.9880    -0.8020 c3         1 RQP      -0.029100
      3 C15         -2.4730    -0.1340    -1.4970 ca         1 RQP      -0.072500
      4 C17         -4.3780     0.4750    -0.1150 ca         1 RQP       0.176000
      5 C20         -2.8950    -1.3170     0.5890 ca         1 RQP      -0.072500
      6 C21          0.7460    -0.0000    -0.7830 c          1 RQP       0.572000
      7 C01          4.6760     2.3380    -0.2150 c3         1 RQP       0.144900
      8 C03          2.3950     2.7380     0.4900 c3         1 RQP       0.131600
      9 C06          0.4080     0.2530     1.4970 c          1 RQP       0.618000
     10 C09          0.4320    -1.4130    -0.1710 c5         1 RQP       0.038400
     11 C11          2.9840    -1.9080     0.1460 c3         1 RQP       0.160600
     12 C14         -2.1090    -1.1280    -0.5660 ca         1 RQP      -0.113300
     13 C16         -3.6060     0.6680    -1.2700 ca         1 RQP      -0.150500
     14 C19         -4.0280    -0.5150     0.8140 ca         1 RQP      -0.150500
     15 N05          0.7210     0.8510     0.3060 n          1 RQP      -0.377400
     16 N08          0.2580    -1.0780     1.2620 ns         1 RQP      -0.519900
     17 O02          3.2820     2.0470    -0.4100 os         1 RQP      -0.451000
     18 O07          0.2940     0.7970     2.5800 o          1 RQP      -0.554000
     19 O12          3.9860    -2.8920    -0.1330 oh         1 RQP      -0.663000
     20 O22          0.9550     0.3200    -1.9470 o          1 RQP      -0.496000
     21 H1           1.3910    -3.3590     0.0520 hc         1 RQP       0.069700
     22 H2           1.7340    -2.5750    -1.4800 hc         1 RQP       0.069700
     23 H3          -0.7210    -2.1290    -1.8810 hc         1 RQP       0.066200
     24 H4          -1.0500    -2.9930    -0.4030 hc         1 RQP       0.066200
     25 H5          -1.8790     0.0210    -2.3950 ha         1 RQP       0.119500
     26 H6          -2.6260    -2.0820     1.3150 ha         1 RQP       0.119500
     27 H7           5.2860     1.7770    -0.9340 h1         1 RQP       0.029367
     28 H8           4.8750     3.4080    -0.3580 h1         1 RQP       0.029367
     29 H9           4.9950     2.0560     0.7970 h1         1 RQP       0.029367
     30 H10          2.4840     3.8250     0.3660 h1         1 RQP       0.036200
     31 H11          2.6330     2.4910     1.5330 h1         1 RQP       0.036200
     32 H12          0.2680     2.8320     0.8790 h1         1 RQP       0.075200
     33 H13          0.6780     2.6380    -0.8260 h1         1 RQP       0.075200
     34 H14          3.2530    -0.9510    -0.3200 h1         1 RQP       0.030200
     35 H15          2.9040    -1.7450     1.2300 h1         1 RQP       0.030200
     36 H16         -3.8850     1.4360    -1.9870 ha         1 RQP       0.134000
     37 H17         -4.6320    -0.6590     1.7060 ha         1 RQP       0.134000
     38 H18          0.0070    -1.7010     2.0210 hn         1 RQP       0.347500
     39 H19          4.8310    -2.5550     0.2390 ho         1 RQP       0.446000
     40 C04          0.9410     2.3090     0.1880 c3         1 RQP       0.118000
     41 F18         -5.4660     1.2460     0.1020 f          1 RQP      -0.178000
@<TRIPOS>BOND
     1     1    10 1   
     2     1    11 1   
     3     1    21 1   
     4     1    22 1   
     5     2    10 1   
     6     2    12 1   
     7     2    23 1   
     8     2    24 1   
     9     3    12 ar  
    10     3    13 ar  
    11     3    25 1   
    12     4    13 ar  
    13     4    14 ar  
    14     4    41 1   
    15     5    12 ar  
    16     5    14 ar  
    17     5    26 1   
    18     6    10 1   
    19     6    15 1   
    20     6    20 2   
    21     7    17 1   
    22     7    27 1   
    23     7    28 1   
    24     7    29 1   
    25     8    17 1   
    26     8    30 1   
    27     8    31 1   
    28     8    40 1   
    29     9    15 1   
    30     9    16 1   
    31     9    18 2   
    32    10    16 1   
    33    11    19 1   
    34    11    34 1   
    35    11    35 1   
    36    13    36 1   
    37    14    37 1   
    38    15    40 1   
    39    16    38 1   
    40    19    39 1   
    41    32    40 1   
    42    33    40 1   
@<TRIPOS>SUBSTRUCTURE
     1 RQP         1 TEMP              0 ****  ****    0 ROOT
