@<TRIPOS>MOLECULE
RQQ
   37    39     1     0     0
SMALL
abcg2


@<TRIPOS>ATOM
      1 O1           0.8180    -2.7070    -0.4440 o          1 RQQ      -0.596100
      2 C6           0.6710    -1.5410    -0.1050 c          1 RQQ       0.611700
      3 C4           1.8160    -0.5760    -0.1480 ca         1 RQQ      -0.147600
      4 C3           1.6240     0.8110    -0.3570 ca         1 RQQ      -0.087000
      5 C2           2.6870     1.6690    -0.4040 ca         1 RQQ      -0.081000
      6 C5           3.0860    -1.0740    -0.0040 ca         1 RQQ      -0.014000
      7 C            4.1960    -0.2080    -0.0320 ca         1 RQQ       0.210000
      8 N2           5.4410    -0.7170     0.1340 nb         1 RQQ      -0.613000
      9 C16          6.4300     0.1270     0.0960 ca         1 RQQ       0.294900
     10 C15          6.2310     1.5160    -0.1110 ca         1 RQQ       0.304900
     11 N1           5.0470     2.0320    -0.2730 nb         1 RQQ      -0.626000
     12 C1           3.9980     1.1770    -0.2350 ca         1 RQQ       0.234000
     13 N           -0.4950    -1.0370     0.3280 ns         1 RQQ      -0.500900
     14 C7          -1.7090    -1.8210     0.4420 c3         1 RQQ       0.153300
     15 C8          -2.9200    -0.9530     0.2390 ca         1 RQQ      -0.155300
     16 C14         -3.1610    -0.3440    -0.9940 ca         1 RQQ      -0.058000
     17 C13         -4.2680     0.4570    -1.1900 ca         1 RQQ      -0.175500
     18 C11         -5.1730     0.6750    -0.1470 ca         1 RQQ       0.149100
     19 O           -6.2240     1.4680    -0.4280 os         1 RQQ      -0.340100
     20 C12         -7.1510     1.7540     0.6010 c3         1 RQQ       0.147900
     21 C10         -4.9450     0.0770     1.0880 ca         1 RQQ      -0.175500
     22 C9          -3.8230    -0.7270     1.2660 ca         1 RQQ      -0.058000
     23 H           -0.5080    -0.1220     0.7490 hn         1 RQQ       0.317500
     24 H3           0.6280     1.2060    -0.5130 ha         1 RQQ       0.121000
     25 H5           3.2580    -2.1320     0.1450 ha         1 RQQ       0.155000
     26 H2           2.5440     2.7270    -0.5760 ha         1 RQQ       0.137000
     27 H16          7.4350    -0.2580     0.2290 h4         1 RQQ       0.032100
     28 H15          7.0850     2.1830    -0.1380 h4         1 RQQ       0.031100
     29 H71C        -1.6750    -2.6110    -0.3080 h1         1 RQQ       0.060200
     30 H72C        -1.7590    -2.3120     1.4180 h1         1 RQQ       0.060200
     31 H14         -2.4730    -0.5010    -1.8160 ha         1 RQQ       0.116500
     32 H9          -3.6590    -1.1830     2.2350 ha         1 RQQ       0.116500
     33 H13         -4.4440     0.9210    -2.1530 ha         1 RQQ       0.124500
     34 H10         -5.6200     0.2210     1.9210 ha         1 RQQ       0.124500
     35 H121        -7.9030     2.4080     0.1670 h1         1 RQQ       0.042033
     36 H122        -7.6430     0.8510     0.9710 h1         1 RQQ       0.042033
     37 H123        -6.6800     2.2690     1.4420 h1         1 RQQ       0.042033
@<TRIPOS>BOND
     1     1     2 2   
     2     2     3 1   
     3     2    13 1   
     4     3     4 ar  
     5     3     6 ar  
     6     4     5 ar  
     7     4    24 1   
     8     5    12 ar  
     9     5    26 1   
    10     6     7 ar  
    11     6    25 1   
    12     7     8 ar  
    13     7    12 ar  
    14     8     9 ar  
    15     9    10 ar  
    16     9    27 1   
    17    10    11 ar  
    18    10    28 1   
    19    11    12 ar  
    20    13    14 1   
    21    13    23 1   
    22    14    15 1   
    23    14    29 1   
    24    14    30 1   
    25    15    16 ar  
    26    15    22 ar  
    27    16    17 ar  
    28    16    31 1   
    29    17    18 ar  
    30    17    33 1   
    31    18    19 1   
    32    18    21 ar  
    33    19    20 1   
    34    20    35 1   
    35    20    36 1   
    36    20    37 1   
    37    21    22 ar  
    38    21    34 1   
    39    22    32 1   
@<TRIPOS>SUBSTRUCTURE
     1 RQQ         1 TEMP              0 ****  ****    0 ROOT
