@<TRIPOS>MOLECULE
RQQ
   37    39     1     0     0
SMALL
No Charge or Current Charge


@<TRIPOS>ATOM
      1 O1           0.9210    -2.8170     0.1440 o          1 RQQ      -0.596100
      2 C6           0.7220    -1.6120     0.0660 c          1 RQQ       0.611700
      3 C4           1.8570    -0.6090     0.0290 ca         1 RQQ      -0.147600
      4 C3           1.6340     0.7850    -0.0610 ca         1 RQQ      -0.087000
      5 C2           2.7180     1.6770    -0.0930 ca         1 RQQ      -0.081000
      6 C5           3.1890    -1.0750     0.0860 ca         1 RQQ      -0.014000
      7 C            4.2870    -0.1940     0.0560 ca         1 RQQ       0.210000
      8 N2           5.5520    -0.6970     0.1140 nb         1 RQQ      -0.613000
      9 C16          6.5640     0.2110     0.0800 ca         1 RQQ       0.294900
     10 C15          6.3240     1.6030    -0.0100 ca         1 RQQ       0.304900
     11 N1           5.0660     2.1170    -0.0690 nb         1 RQQ      -0.626000
     12 C1           4.0450     1.2170    -0.0360 ca         1 RQQ       0.234000
     13 N           -0.5550    -1.1050     0.0070 ns         1 RQQ      -0.500900
     14 C7          -1.7660    -1.9190     0.0310 c3         1 RQQ       0.153300
     15 C8          -3.0040    -1.0410    -0.0460 ca         1 RQQ      -0.155300
     16 C14         -3.5570    -0.7030    -1.2950 ca         1 RQQ      -0.058000
     17 C13         -4.6980     0.1130    -1.3640 ca         1 RQQ      -0.175500
     18 C11         -5.2980     0.6000    -0.1920 ca         1 RQQ       0.149100
     19 O           -6.4170     1.3970    -0.3230 os         1 RQQ      -0.340100
     20 C12         -7.1050     1.9460     0.8160 c3         1 RQQ       0.147900
     21 C10         -4.7440     0.2640     1.0630 ca         1 RQQ      -0.175500
     22 C9          -3.6010    -0.5520     1.1320 ca         1 RQQ      -0.058000
     23 H           -0.6560    -0.1020    -0.0560 hn         1 RQQ       0.317500
     24 H3           0.6290     1.1970    -0.1080 ha         1 RQQ       0.121000
     25 H5           3.3880    -2.1410     0.1560 ha         1 RQQ       0.155000
     26 H2           2.5290     2.7450    -0.1620 ha         1 RQQ       0.137000
     27 H16          7.5800    -0.1800     0.1260 h4         1 RQQ       0.032100
     28 H15          7.1500     2.3120    -0.0360 h4         1 RQQ       0.031100
     29 H71C        -1.7470    -2.6160    -0.8170 h1         1 RQQ       0.060200
     30 H72C        -1.7830    -2.5100     0.9570 h1         1 RQQ       0.060200
     31 H14         -3.1010    -1.0710    -2.2130 ha         1 RQQ       0.116500
     32 H9          -3.1790    -0.8040     2.1030 ha         1 RQQ       0.116500
     33 H13         -5.1220     0.3710    -2.3310 ha         1 RQQ       0.124500
     34 H10         -5.1820     0.6250     1.9890 ha         1 RQQ       0.124500
     35 H121        -7.9630     2.5460     0.4880 h1         1 RQQ       0.042033
     36 H122        -7.4780     1.1470     1.4690 h1         1 RQQ       0.042033
     37 H123        -6.4390     2.5960     1.3980 h1         1 RQQ       0.042033
@<TRIPOS>BOND
     1     1     2 2   
     2     2     3 1   
     3     2    13 1   
     4     3     4 ar  
     5     3     6 ar  
     6     4     5 ar  
     7     4    24 1   
     8     5    12 ar  
     9     5    26 1   
    10     6     7 ar  
    11     6    25 1   
    12     7     8 ar  
    13     7    12 ar  
    14     8     9 ar  
    15     9    10 ar  
    16     9    27 1   
    17    10    11 ar  
    18    10    28 1   
    19    11    12 ar  
    20    13    14 1   
    21    13    23 1   
    22    14    15 1   
    23    14    29 1   
    24    14    30 1   
    25    15    16 ar  
    26    15    22 ar  
    27    16    17 ar  
    28    16    31 1   
    29    17    18 ar  
    30    17    33 1   
    31    18    19 1   
    32    18    21 ar  
    33    19    20 1   
    34    20    35 1   
    35    20    36 1   
    36    20    37 1   
    37    21    22 ar  
    38    21    34 1   
    39    22    32 1   
@<TRIPOS>SUBSTRUCTURE
     1 RQQ         1 TEMP              0 ****  ****    0 ROOT
