@<TRIPOS>MOLECULE
RQR
   30    32     1     0     0
SMALL
No Charge or Current Charge


@<TRIPOS>ATOM
      1 N1         -44.5530   -29.9120     2.1280 ns         1 RQR      -0.449900
      2 S1         -48.2110   -28.0690     7.1060 ss         1 RQR      -0.164900
      3 C13        -44.8160   -29.9300     6.2290 ca         1 RQR       0.130900
      4 O2         -42.1130   -33.7040     2.0890 o          1 RQR      -0.722000
      5 C12        -46.8000   -28.8200     6.3140 ca         1 RQR       0.129300
      6 C11        -48.8560   -27.6250     5.5010 cc         1 RQR      -0.193400
      7 O3         -42.8900   -31.9590     3.0510 o          1 RQR      -0.722000
      8 C10        -48.0140   -28.0440     4.4890 cd         1 RQR      -0.113200
      9 C9         -46.8190   -28.7370     4.9340 ca         1 RQR      -0.140800
     10 C8         -45.7470   -29.3010     4.1940 ca         1 RQR       0.120500
     11 C7         -45.6550   -29.2680     2.6690 c          1 RQR       0.495600
     12 C6         -42.1310   -30.6090     0.4740 c2         1 RQR      -0.151200
     13 C5         -42.9850   -29.5850     0.4940 c2         1 RQR      -0.305200
     14 C4         -44.4130   -30.0330     0.6810 c5         1 RQR       0.144900
     15 C3         -44.3610   -31.5790     0.4260 c5         1 RQR      -0.066400
     16 C2         -42.8420   -31.9420     0.6390 c5         1 RQR      -0.188500
     17 C1         -42.6070   -32.5870     2.0390 c          1 RQR       0.729000
     18 O1         -46.4850   -28.7100     1.9580 o          1 RQR      -0.662100
     19 N2         -45.8040   -29.4150     6.9930 nb         1 RQR      -0.160000
     20 N3         -44.7370   -29.9030     4.8770 nb         1 RQR      -0.140000
     21 H7         -43.9380   -30.4190     2.7650 hn         1 RQR       0.402500
     22 H8         -48.2510   -27.8590     3.4440 ha         1 RQR       0.235000
     23 H6         -41.0500   -30.4950     0.3540 ha         1 RQR       0.170000
     24 H5         -42.6800   -28.5430     0.3890 ha         1 RQR       0.169000
     25 H2         -45.1540   -29.4960     0.0730 h1         1 RQR       0.057700
     26 H3         -44.6480   -31.7850    -0.6120 hc         1 RQR       0.036200
     27 H4         -45.0470   -32.1570     1.0570 hc         1 RQR       0.036200
     28 H1         -42.5100   -32.6520    -0.1270 hc         1 RQR       0.052700
     29 H10        -43.9970   -30.4180     6.7550 h5         1 RQR       0.060100
     30 H9         -49.7990   -27.0930     5.4250 h4         1 RQR       0.209000
@<TRIPOS>BOND
     1     1    11 1   
     2     1    14 1   
     3     1    21 1   
     4     2     5 1   
     5     2     6 1   
     6     3    19 ar  
     7     3    20 ar  
     8     3    29 1   
     9     4    17 1   
    10     5     9 ar  
    11     5    19 ar  
    12     6     8 2   
    13     6    30 1   
    14     7    17 1   
    15     8     9 1   
    16     8    22 1   
    17     9    10 ar  
    18    10    11 1   
    19    10    20 ar  
    20    11    18 2   
    21    12    13 2   
    22    12    16 1   
    23    12    23 1   
    24    13    14 1   
    25    13    24 1   
    26    14    15 1   
    27    14    25 1   
    28    15    16 1   
    29    15    26 1   
    30    15    27 1   
    31    16    17 1   
    32    16    28 1   
@<TRIPOS>SUBSTRUCTURE
     1 RQR         1 TEMP              0 ****  ****    0 ROOT
