@<TRIPOS>MOLECULE
RQR
   30    32     1     0     0
SMALL
abcg2


@<TRIPOS>ATOM
      1 N1         -44.8250   -30.1640     2.2420 ns         1 RQR      -0.449900
      2 S1         -48.0740   -27.8280     7.0640 ss         1 RQR      -0.164900
      3 C13        -45.1110   -30.1690     6.2320 ca         1 RQR       0.130900
      4 O2         -41.3030   -33.3290     1.8760 o          1 RQR      -0.722000
      5 C12        -46.8390   -28.7710     6.3050 ca         1 RQR       0.129300
      6 C11        -48.6260   -27.2780     5.5190 cc         1 RQR      -0.193400
      7 O3         -42.7860   -32.0410     2.9260 o          1 RQR      -0.722000
      8 C10        -47.9240   -27.7680     4.4740 cd         1 RQR      -0.113200
      9 C9         -46.8720   -28.6430     4.9010 ca         1 RQR      -0.140800
     10 C8         -45.8910   -29.3850     4.2330 ca         1 RQR       0.120500
     11 C7         -45.7620   -29.3580     2.7290 c          1 RQR       0.495600
     12 C6         -42.2080   -30.4910     0.3980 c2         1 RQR      -0.151200
     13 C5         -43.1870   -29.6030     0.5400 c2         1 RQR      -0.305200
     14 C4         -44.5040   -30.2790     0.8310 c5         1 RQR       0.144900
     15 C3         -44.2100   -31.7370     0.4340 c5         1 RQR      -0.066400
     16 C2         -42.6870   -31.9090     0.5440 c5         1 RQR      -0.188500
     17 C1         -42.2150   -32.4870     1.9040 c          1 RQR       0.729000
     18 O1         -46.4920   -28.6360     2.0600 o          1 RQR      -0.662100
     19 N2         -45.9810   -29.5140     6.9790 nb         1 RQR      -0.160000
     20 N3         -45.0340   -30.1330     4.9070 nb         1 RQR      -0.140000
     21 H7         -44.2220   -30.7150     2.8560 hn         1 RQR       0.402500
     22 H8         -48.1410   -27.5250     3.4490 ha         1 RQR       0.235000
     23 H6         -41.1650   -30.2420     0.2370 ha         1 RQR       0.170000
     24 H5         -43.0740   -28.5260     0.5290 ha         1 RQR       0.169000
     25 H2         -45.3340   -29.8610     0.2620 h1         1 RQR       0.057700
     26 H3         -44.5070   -31.8720    -0.6070 hc         1 RQR       0.036200
     27 H4         -44.7810   -32.4520     1.0270 hc         1 RQR       0.036200
     28 H1         -42.3000   -32.5400    -0.2600 hc         1 RQR       0.052700
     29 H10        -44.3900   -30.7920     6.7470 h5         1 RQR       0.060100
     30 H9         -49.4670   -26.6020     5.4710 h4         1 RQR       0.209000
@<TRIPOS>BOND
     1     1    11 1   
     2     1    14 1   
     3     1    21 1   
     4     2     5 1   
     5     2     6 1   
     6     3    19 ar  
     7     3    20 ar  
     8     3    29 1   
     9     4    17 1   
    10     5     9 ar  
    11     5    19 ar  
    12     6     8 2   
    13     6    30 1   
    14     7    17 1   
    15     8     9 1   
    16     8    22 1   
    17     9    10 ar  
    18    10    11 1   
    19    10    20 ar  
    20    11    18 2   
    21    12    13 2   
    22    12    16 1   
    23    12    23 1   
    24    13    14 1   
    25    13    24 1   
    26    14    15 1   
    27    14    25 1   
    28    15    16 1   
    29    15    26 1   
    30    15    27 1   
    31    16    17 1   
    32    16    28 1   
@<TRIPOS>SUBSTRUCTURE
     1 RQR         1 TEMP              0 ****  ****    0 ROOT
