@<TRIPOS>MOLECULE
RQS
   41    44     1     0     0
SMALL
No Charge or Current Charge


@<TRIPOS>ATOM
      1 N1          18.2490    -5.4370     0.2880 nb         1 RQS      -0.193000
      2 N3          13.0520    -9.9260     6.5280 ns         1 RQS      -0.506900
      3 C4          16.0010    -5.6920     1.0120 ca         1 RQS      -0.184800
      4 C5          16.3490    -6.8120     1.8100 cp         1 RQS       0.232500
      5 C6          15.3780    -7.5790     2.6560 cp         1 RQS      -0.157500
      6 C7          15.4790    -8.9880     2.7880 ca         1 RQS      -0.071000
      7 C8          14.5740    -9.7090     3.5860 ca         1 RQS      -0.114000
      8 C13         14.2670   -10.3840     9.1130 ca         1 RQS      -0.073000
      9 C15         14.4960    -9.7560    11.4570 ca         1 RQS      -0.089000
     10 C17         12.9940    -8.5100    10.0020 ca         1 RQS      -0.073000
     11 C20         18.5200    -6.5210     1.0540 ca         1 RQS       0.139900
     12 C1          16.9650    -5.0360     0.2790 ca         1 RQS       0.123500
     13 C11         12.6880    -9.0830     7.5560 c          1 RQS       0.611700
     14 C12         13.3310    -9.3380     8.9060 ca         1 RQS      -0.151600
     15 C14         14.8420   -10.5870    10.3800 ca         1 RQS      -0.119000
     16 C16         13.5720    -8.7180    11.2660 ca         1 RQS      -0.119000
     17 C18         13.4440    -7.6430     4.1720 ca         1 RQS      -0.114000
     18 C19         14.3480    -6.9210     3.3730 ca         1 RQS      -0.071000
     19 C2          14.9650    -3.9580    -0.1480 cc         1 RQS      -0.160100
     20 C3          14.7590    -5.0120     0.7230 cd         1 RQS      -0.213200
     21 C9          13.5480    -9.0410     4.2800 ca         1 RQS      -0.082300
     22 N2          16.3510    -3.9960    -0.4030 na         1 RQS      -0.322400
     23 N4          17.6370    -7.2250     1.8020 nb         1 RQS      -0.210000
     24 O1          11.8830    -8.1780     7.3800 o          1 RQS      -0.590100
     25 H1          13.7260   -10.6480     6.7450 hn         1 RQS       0.317500
     26 H2          16.2600    -9.5290     2.2590 ha         1 RQS       0.124500
     27 H3          14.6730   -10.7890     3.6660 ha         1 RQS       0.114500
     28 H4          11.5870    -9.3360     5.1310 h1         1 RQS       0.063200
     29 H5          12.4460   -10.8330     4.7440 h1         1 RQS       0.063200
     30 H7          14.9430    -9.9170    12.4360 ha         1 RQS       0.115000
     31 H8          12.2800    -7.6980     9.8780 ha         1 RQS       0.122500
     32 H9          19.5530    -6.8630     1.0670 h5         1 RQS       0.049100
     33 H10         15.5580   -11.3920    10.5270 ha         1 RQS       0.117000
     34 H11         13.3030    -8.0720    12.0990 ha         1 RQS       0.117000
     35 H12         12.6660    -7.1110     4.7150 ha         1 RQS       0.114500
     36 H13         14.2610    -5.8380     3.3300 ha         1 RQS       0.124500
     37 H14         14.2820    -3.2350    -0.5900 h4         1 RQS       0.218000
     38 H15         13.7810    -5.2940     1.1080 ha         1 RQS       0.212000
     39 H16         16.8490    -3.3540    -1.0130 hn         1 RQS       0.364000
     40 C10         12.5720    -9.8200     5.1490 c3         1 RQS       0.147300
     41 H6          14.5610   -11.0480     8.3050 ha         1 RQS       0.122500
@<TRIPOS>BOND
     1     1    11 ar  
     2     1    12 ar  
     3     2    13 1   
     4     2    25 1   
     5     2    40 1   
     6     3     4 ar  
     7     3    12 ar  
     8     3    20 1   
     9     4     5 1   
    10     4    23 ar  
    11     5     6 ar  
    12     5    18 ar  
    13     6     7 ar  
    14     6    26 1   
    15     7    21 ar  
    16     7    27 1   
    17     8    14 ar  
    18     8    15 ar  
    19     8    41 1   
    20     9    15 ar  
    21     9    16 ar  
    22     9    30 1   
    23    10    14 ar  
    24    10    16 ar  
    25    10    31 1   
    26    11    23 ar  
    27    11    32 1   
    28    12    22 1   
    29    13    14 1   
    30    13    24 2   
    31    15    33 1   
    32    16    34 1   
    33    17    18 ar  
    34    17    21 ar  
    35    17    35 1   
    36    18    36 1   
    37    19    20 2   
    38    19    22 1   
    39    19    37 1   
    40    20    38 1   
    41    21    40 1   
    42    22    39 1   
    43    28    40 1   
    44    29    40 1   
@<TRIPOS>SUBSTRUCTURE
     1 RQS         1 TEMP              0 ****  ****    0 ROOT
