@<TRIPOS>MOLECULE
RQS
   41    44     1     0     0
SMALL
bcc


@<TRIPOS>ATOM
      1 N1          18.1130    -5.0990     0.4200 nb         1 RQS      -0.719000
      2 N3          12.7870    -9.1800     6.8290 ns         1 RQS      -0.573900
      3 C4          15.8850    -6.0510     0.6730 ca         1 RQS      -0.315400
      4 C5          16.1220    -6.1710     2.0450 cp         1 RQS       0.560800
      5 C6          15.1390    -6.7250     2.9920 cp         1 RQS      -0.157500
      6 C7          15.5710    -7.4410     4.1060 ca         1 RQS      -0.089000
      7 C8          14.6610    -7.9850     5.0000 ca         1 RQS      -0.132000
      8 C13         14.3160   -10.8320     8.6510 ca         1 RQS      -0.091000
      9 C15         14.6950   -11.3650    10.9660 ca         1 RQS      -0.107000
     10 C17         13.5990    -9.3100    10.3670 ca         1 RQS      -0.091000
     11 C20         18.2170    -5.2850     1.7240 ca         1 RQS       0.665900
     12 C1          16.9490    -5.4950    -0.0750 ca         1 RQS       0.451800
     13 C11         13.1620    -8.6650     8.0150 c          1 RQS       0.678700
     14 C12         13.6970    -9.6380     9.0170 ca         1 RQS      -0.151600
     15 C14         14.8150   -11.6890     9.6220 ca         1 RQS      -0.137000
     16 C16         14.0850   -10.1730    11.3360 ca         1 RQS      -0.137000
     17 C18         12.8620    -7.0740     3.7150 ca         1 RQS      -0.132000
     18 C19         13.7670    -6.5450     2.8110 ca         1 RQS      -0.089000
     19 C2          15.3180    -6.0000    -1.4890 cc         1 RQS      -0.110100
     20 C3          14.8530    -6.3730    -0.2630 cd         1 RQS      -0.163200
     21 C9          13.2950    -7.8080     4.8170 ca         1 RQS      -0.082300
     22 N2          16.5750    -5.4650    -1.3730 na         1 RQS      -0.272100
     23 N4          17.2980    -5.7930     2.5420 nb         1 RQS      -0.736000
     24 O1          13.0670    -7.4750     8.2750 o          1 RQS      -0.590100
     25 H1          12.8100   -10.1760     6.6880 hn         1 RQS       0.317500
     26 H2          16.6310    -7.5870     4.2700 ha         1 RQS       0.142500
     27 H3          15.0300    -8.5530     5.8430 ha         1 RQS       0.132500
     28 H4          11.6720    -7.5560     6.1830 h1         1 RQS       0.063200
     29 H5          11.5600    -8.9920     5.1940 h1         1 RQS       0.063200
     30 H7          15.0780   -12.0370    11.7230 ha         1 RQS       0.133000
     31 H8          13.1330    -8.3790    10.6620 ha         1 RQS       0.140500
     32 H9          19.1540    -4.9890     2.1820 h5         1 RQS       0.049100
     33 H10         15.3010   -12.6090     9.3250 ha         1 RQS       0.135000
     34 H11         13.9910    -9.9130    12.3830 ha         1 RQS       0.135000
     35 H12         11.8020    -6.9130     3.5570 ha         1 RQS       0.132500
     36 H13         13.3960    -5.9640     1.9770 ha         1 RQS       0.142500
     37 H14         14.8470    -6.0790    -2.4550 h4         1 RQS       0.168000
     38 H15         13.8970    -6.8290    -0.0700 ha         1 RQS       0.162000
     39 H16         17.1440    -5.1390    -2.1380 hn         1 RQS       0.313700
     40 C10         12.2590    -8.3740     5.7610 c3         1 RQS       0.147300
     41 H6          14.4410   -11.1010     7.6090 ha         1 RQS       0.140500
@<TRIPOS>BOND
     1     1    11 ar  
     2     1    12 ar  
     3     2    13 1   
     4     2    25 1   
     5     2    40 1   
     6     3     4 ar  
     7     3    12 ar  
     8     3    20 1   
     9     4     5 1   
    10     4    23 ar  
    11     5     6 ar  
    12     5    18 ar  
    13     6     7 ar  
    14     6    26 1   
    15     7    21 ar  
    16     7    27 1   
    17     8    14 ar  
    18     8    15 ar  
    19     8    41 1   
    20     9    15 ar  
    21     9    16 ar  
    22     9    30 1   
    23    10    14 ar  
    24    10    16 ar  
    25    10    31 1   
    26    11    23 ar  
    27    11    32 1   
    28    12    22 1   
    29    13    14 1   
    30    13    24 2   
    31    15    33 1   
    32    16    34 1   
    33    17    18 ar  
    34    17    21 ar  
    35    17    35 1   
    36    18    36 1   
    37    19    20 2   
    38    19    22 1   
    39    19    37 1   
    40    20    38 1   
    41    21    40 1   
    42    22    39 1   
    43    28    40 1   
    44    29    40 1   
@<TRIPOS>SUBSTRUCTURE
     1 RQS         1 TEMP              0 ****  ****    0 ROOT
