@<TRIPOS>MOLECULE
RQT
   35    37     1     0     0
SMALL
bcc


@<TRIPOS>ATOM
      1 C7         -41.7640   -12.9990   -49.3180 ca         1 RQT      -0.279300
      2 C9         -40.3270   -15.0890   -48.4860 ca         1 RQT       0.430800
      3 N1         -40.1220   -14.7060   -49.7360 nb         1 RQT      -0.683000
      4 C2         -41.1760   -15.2390   -43.8620 ca         1 RQT      -0.189000
      5 N2         -39.6860   -16.1080   -47.8520 na         1 RQT      -0.272100
      6 C10        -40.1440   -16.2000   -46.5720 cc         1 RQT      -0.088100
      7 C4         -41.0990   -15.2440   -46.3360 cd         1 RQT      -0.084400
      8 C6         -41.9640   -13.4150   -48.0130 ca         1 RQT      -0.043000
      9 O          -42.5260   -14.8030   -39.8020 o          1 RQT      -0.577100
     10 C          -41.4260   -15.1630   -40.1820 c          1 RQT       0.675100
     11 C14        -40.2850   -15.4520   -39.2310 c3         1 RQT      -0.165400
     12 C15        -39.2620   -14.3160   -39.2090 c3         1 RQT      -0.087100
     13 C1         -41.8390   -15.0720   -42.6450 ca         1 RQT       0.076600
     14 C13        -43.1780   -14.6770   -42.6470 ca         1 RQT      -0.152000
     15 C12        -43.8150   -14.4690   -43.8630 ca         1 RQT      -0.103000
     16 C11        -43.1600   -14.6460   -45.0690 ca         1 RQT      -0.149000
     17 C3         -41.8180   -15.0370   -45.0800 ca         1 RQT       0.022200
     18 C5         -41.2320   -14.5130   -47.5640 ca         1 RQT      -0.187100
     19 C8         -40.8470   -13.6710   -50.1330 ca         1 RQT       0.423200
     20 H1         -42.3070   -12.1540   -49.7170 ha         1 RQT       0.140000
     21 H2         -40.1260   -15.5120   -43.8550 ha         1 RQT       0.122000
     22 H3         -38.9910   -16.7090   -48.2670 hn         1 RQT       0.312700
     23 H4         -39.7650   -16.9640   -45.9130 h4         1 RQT       0.166000
     24 H5         -42.6630   -12.8950   -47.3710 ha         1 RQT       0.142000
     25 H6         -40.7080   -15.5930   -38.2370 hc         1 RQT       0.066700
     26 H7         -39.7950   -16.3870   -39.5120 hc         1 RQT       0.066700
     27 H8         -38.4850   -14.5270   -38.4770 hc         1 RQT       0.042033
     28 H9         -38.7760   -14.1880   -40.1770 hc         1 RQT       0.042033
     29 H10        -39.7280   -13.3690   -38.9380 hc         1 RQT       0.042033
     30 H11        -40.1450   -15.6240   -41.6670 hn         1 RQT       0.313500
     31 H12        -43.7200   -14.5320   -41.7270 ha         1 RQT       0.166000
     32 H13        -44.8560   -14.1700   -43.8610 ha         1 RQT       0.132000
     33 H14        -43.6980   -14.5050   -45.9980 ha         1 RQT       0.135000
     34 H15        -40.6970   -13.3440   -51.1550 h4         1 RQT       0.018100
     35 N          -41.0880   -15.3130   -41.4910 ns         1 RQT      -0.475100
@<TRIPOS>BOND
     1     1     8 ar  
     2     1    19 ar  
     3     1    20 1   
     4     2     3 ar  
     5     2     5 1   
     6     2    18 ar  
     7     3    19 ar  
     8     4    13 ar  
     9     4    17 ar  
    10     4    21 1   
    11     5     6 1   
    12     5    22 1   
    13     6     7 2   
    14     6    23 1   
    15     7    17 1   
    16     7    18 1   
    17     8    18 ar  
    18     8    24 1   
    19     9    10 2   
    20    10    11 1   
    21    10    35 1   
    22    11    12 1   
    23    11    25 1   
    24    11    26 1   
    25    12    27 1   
    26    12    28 1   
    27    12    29 1   
    28    13    14 ar  
    29    13    35 1   
    30    14    15 ar  
    31    14    31 1   
    32    15    16 ar  
    33    15    32 1   
    34    16    17 ar  
    35    16    33 1   
    36    19    34 1   
    37    30    35 1   
@<TRIPOS>SUBSTRUCTURE
     1 RQT         1 TEMP              0 ****  ****    0 ROOT
