@<TRIPOS>MOLECULE
RQT
   35    37     1     0     0
SMALL
No Charge or Current Charge


@<TRIPOS>ATOM
      1 C7         -41.9790   -13.1450   -49.4850 ca         1 RQT      -0.196000
      2 C9         -40.3940   -15.2030   -48.6310 ca         1 RQT       0.365500
      3 N1         -40.2850   -14.8340   -49.9210 nb         1 RQT      -0.683000
      4 C2         -41.1070   -15.2400   -43.9580 ca         1 RQT      -0.171000
      5 N2         -39.6700   -16.1520   -47.9440 na         1 RQT      -0.322400
      6 C10        -40.0340   -16.2010   -46.5840 cc         1 RQT      -0.138100
      7 C4         -41.0730   -15.2880   -46.4610 cd         1 RQT      -0.084400
      8 C6         -42.0790   -13.5370   -48.1370 ca         1 RQT      -0.025000
      9 O          -42.3710   -14.7830   -39.7530 o          1 RQT      -0.577100
     10 C          -41.2870   -15.1510   -40.1920 c          1 RQT       0.608100
     11 C14        -40.1540   -15.5880   -39.2520 c3         1 RQT      -0.165400
     12 C15        -39.4940   -14.3810   -38.5470 c3         1 RQT      -0.087100
     13 C1         -41.7190   -14.9590   -42.7220 ca         1 RQT      -0.016000
     14 C13        -43.0140   -14.4020   -42.7120 ca         1 RQT      -0.134000
     15 C12        -43.6810   -14.1530   -43.9210 ca         1 RQT      -0.085000
     16 C11        -43.0590   -14.4380   -45.1460 ca         1 RQT      -0.131000
     17 C3         -41.7520   -14.9660   -45.1840 ca         1 RQT       0.022200
     18 C5         -41.2720   -14.6170   -47.7400 ca         1 RQT      -0.121800
     19 C8         -41.0840   -13.8210   -50.3390 ca         1 RQT       0.357900
     20 H1         -42.5750   -12.3210   -49.8670 ha         1 RQT       0.122000
     21 H2         -40.1030   -15.6570   -43.9600 ha         1 RQT       0.104000
     22 H3         -38.9500   -16.7160   -48.3800 hn         1 RQT       0.363000
     23 H4         -39.5670   -16.8650   -45.8620 h4         1 RQT       0.216000
     24 H5         -42.7280   -12.9970   -47.4560 ha         1 RQT       0.124000
     25 H6         -40.5700   -16.2490   -38.4830 hc         1 RQT       0.066700
     26 H7         -39.3790   -16.1200   -39.8170 hc         1 RQT       0.066700
     27 H8         -38.6900   -14.7180   -37.8810 hc         1 RQT       0.042033
     28 H9         -39.0630   -13.6890   -39.2820 hc         1 RQT       0.042033
     29 H10        -40.2290   -13.8320   -37.9450 hc         1 RQT       0.042033
     30 H11        -40.0430   -15.5910   -41.7260 hn         1 RQT       0.147000
     31 H12        -43.5260   -14.1650   -41.7840 ha         1 RQT       0.148000
     32 H13        -44.6920   -13.7490   -43.9080 ha         1 RQT       0.114000
     33 H14        -43.6270   -14.2970   -46.0580 ha         1 RQT       0.117000
     34 H15        -40.9900   -13.5300   -51.3850 h4         1 RQT       0.018100
     35 N          -40.9780   -15.2500   -41.5430 ns         1 RQT      -0.149000
@<TRIPOS>BOND
     1     1     8 ar  
     2     1    19 ar  
     3     1    20 1   
     4     2     3 ar  
     5     2     5 1   
     6     2    18 ar  
     7     3    19 ar  
     8     4    13 ar  
     9     4    17 ar  
    10     4    21 1   
    11     5     6 1   
    12     5    22 1   
    13     6     7 2   
    14     6    23 1   
    15     7    17 1   
    16     7    18 1   
    17     8    18 ar  
    18     8    24 1   
    19     9    10 2   
    20    10    11 1   
    21    10    35 1   
    22    11    12 1   
    23    11    25 1   
    24    11    26 1   
    25    12    27 1   
    26    12    28 1   
    27    12    29 1   
    28    13    14 ar  
    29    13    35 1   
    30    14    15 ar  
    31    14    31 1   
    32    15    16 ar  
    33    15    32 1   
    34    16    17 ar  
    35    16    33 1   
    36    19    34 1   
    37    30    35 1   
@<TRIPOS>SUBSTRUCTURE
     1 RQT         1 TEMP              0 ****  ****    0 ROOT
