@<TRIPOS>MOLECULE
RQU
   75    79     1     0     0
SMALL
No Charge or Current Charge


@<TRIPOS>ATOM
      1 C1         115.5730    56.5090   -47.4410 ca         1 RQU       0.417900
      2 N1        -114.2520    56.2910   -47.3000 nb         1 RQU      -0.333000
      3 O1         117.1530    60.3660   -48.1780 o          1 RQU      -0.622100
      4 C2        -116.1800    54.3610   -46.9880 ca         1 RQU       0.171500
      5 N2         116.5670    55.6110   -47.3060 nb         1 RQU      -0.278000
      6 O2        -112.6170    64.5900   -48.9100 os         1 RQU      -0.354100
      7 C3         114.8590    54.0290   -46.8090 ca         1 RQU      -0.140600
      8 C4        -113.8910    55.0380   -46.9770 ca         1 RQU       0.464900
      9 C5         115.9380    52.1940   -46.4600 cc         1 RQU       0.393700
     10 C7        -119.0610    53.9050   -45.7770 c3         1 RQU      -0.108100
     11 C8         118.8720    53.3240   -48.2690 c3         1 RQU      -0.108100
     12 C9        -111.4020    55.4040   -47.4800 c3         1 RQU       0.284100
     13 C10        115.1310    59.0350   -47.7530 c3         1 RQU       0.148800
     14 C11       -115.9510    60.3590   -47.9400 c          1 RQU       0.580100
     15 C12        111.2520    56.8840   -47.1180 ca         1 RQU      -0.066300
     16 C13       -111.0790    57.8410   -48.1350 ca         1 RQU      -0.106000
     17 C14        110.9300    59.2000   -47.8180 ca         1 RQU      -0.086500
     18 C15       -110.9590    59.6540   -46.4710 cp         1 RQU      -0.159500
     19 C16        111.1300    58.6730   -45.4580 ca         1 RQU      -0.086500
     20 C17       -111.2680    57.3110   -45.7770 ca         1 RQU      -0.106000
     21 C18        110.8260    61.1160   -46.1370 cp         1 RQU       0.405500
     22 C19       -111.4040    61.6790   -44.9690 ca         1 RQU      -0.158000
     23 C20        111.3130    63.0600   -44.7360 ca         1 RQU      -0.070000
     24 C21       -110.6480    63.8450   -45.6880 ca         1 RQU      -0.171000
     25 C22        110.1030    63.2250   -46.8230 ca         1 RQU       0.346900
     26 C23       -113.8450    61.7600   -47.7650 c3         1 RQU       0.107000
     27 C24        113.2670    61.8140   -49.1950 c3         1 RQU      -0.043100
     28 C25       -113.9060    62.9090   -50.0500 ca         1 RQU      -0.114300
     29 C26        113.5570    64.2680   -49.8720 ca         1 RQU       0.134100
     30 C27       -114.1720    65.2570   -50.6740 ca         1 RQU      -0.193000
     31 C28        115.1240    64.8950   -51.6410 ca         1 RQU      -0.073000
     32 C29       -115.4690    63.5460   -51.8150 ca         1 RQU      -0.141000
     33 C30        114.8630    62.5570   -51.0230 ca         1 RQU      -0.071000
     34 C31       -112.2100    65.9450   -48.6510 c3         1 RQU       0.147900
     35 N3         116.8630    53.1950   -46.7660 na         1 RQU      -0.297300
     36 N4        -114.6820    52.6780   -46.4790 nd         1 RQU      -0.551100
     37 N5         112.5420    54.7480   -46.8100 nu         1 RQU      -0.924100
     38 N6        -115.9770    57.8000   -47.7260 nu         1 RQU      -0.897100
     39 N7         110.1860    61.8930   -47.0400 nb         1 RQU      -0.670000
     40 N8        -115.2980    61.5590   -47.7520 ns         1 RQU      -0.500900
     41 H1         116.2320    51.1740   -46.2420 h5         1 RQU       0.061800
     42 H2        -118.5590    52.0120   -46.6180 h1         1 RQU       0.048700
     43 H5         118.6760    53.6730   -44.7770 hc         1 RQU       0.051700
     44 H3        -118.9280    54.9780   -45.9570 hc         1 RQU       0.051700
     45 H4         120.1360    53.6890   -45.7860 hc         1 RQU       0.051700
     46 H7        -119.9440    53.0980   -48.3200 hc         1 RQU       0.051700
     47 H8         118.7310    54.3700   -48.5630 hc         1 RQU       0.051700
     48 H6        -118.3570    52.6880   -48.9980 hc         1 RQU       0.051700
     49 H10        110.4710    54.8900   -47.2050 h1         1 RQU       0.055200
     50 H11       -111.5130    55.3040   -48.5690 h1         1 RQU       0.055200
     51 H13        114.5810    59.1260   -46.8070 h1         1 RQU       0.069200
     52 H14       -114.3910    58.9760   -48.5620 h1         1 RQU       0.069200
     53 H15        111.0580    57.5320   -49.1780 ha         1 RQU       0.119000
     54 H16       -110.8000    59.9110   -48.6310 ha         1 RQU       0.121500
     55 H17        111.1400    58.9620   -44.4100 ha         1 RQU       0.121500
     56 H18       -111.3930    56.5830   -44.9780 ha         1 RQU       0.119000
     57 H19        111.9420    61.0530   -44.2640 ha         1 RQU       0.125000
     58 H20       -111.7540    63.5090   -43.8480 ha         1 RQU       0.119000
     59 H21        110.5540    64.9190   -45.5560 ha         1 RQU       0.121000
     60 H22       -109.5830    63.8100   -47.5810 h4         1 RQU       0.019100
     61 H24        113.3550    60.9590   -47.1990 h1         1 RQU       0.060200
     62 H25       -113.6230    62.7040   -47.2510 h1         1 RQU       0.060200
     63 H27        113.3900    60.8340   -49.6710 hc         1 RQU       0.061200
     64 H26       -112.1850    61.9770   -49.1320 hc         1 RQU       0.061200
     65 H28        113.9250    66.3090   -50.5610 ha         1 RQU       0.116000
     66 H29       -115.5950    65.6600   -52.2550 ha         1 RQU       0.113000
     67 H30        116.2070    63.2660   -52.5630 ha         1 RQU       0.119000
     68 H31       -115.1420    61.5150   -51.1650 ha         1 RQU       0.118000
     69 H32        111.4600    65.9700   -47.8500 h1         1 RQU       0.041033
     70 H33       -111.7650    66.3970   -49.5460 h1         1 RQU       0.041033
     71 H34        113.0650    66.5560   -48.3340 h1         1 RQU       0.041033
     72 H9        -112.4050    53.7720   -46.5460 hn         1 RQU       0.514000
     73 H12        116.9870    57.9300   -47.8250 hn         1 RQU       0.517000
     74 H23       -115.8840    62.3820   -47.8320 hn         1 RQU       0.320500
     75 C6         118.3320    53.0620   -46.8460 c3         1 RQU       0.109300
@<TRIPOS>BOND
     1     1     2 ar  
     2     1     5 ar  
     3     1    38 1   
     4     2     8 ar  
     5     3    14 2   
     6     4     5 ar  
     7     4     7 ar  
     8     4    35 1   
     9     6    29 1   
    10     6    34 1   
    11     7     8 ar  
    12     7    36 1   
    13     8    37 1   
    14     9    35 1   
    15     9    36 2   
    16     9    41 1   
    17    10    43 1   
    18    10    44 1   
    19    10    45 1   
    20    10    75 1   
    21    11    46 1   
    22    11    47 1   
    23    11    48 1   
    24    11    75 1   
    25    12    15 1   
    26    12    37 1   
    27    12    49 1   
    28    12    50 1   
    29    13    14 1   
    30    13    38 1   
    31    13    51 1   
    32    13    52 1   
    33    14    40 1   
    34    15    16 ar  
    35    15    20 ar  
    36    16    17 ar  
    37    16    53 1   
    38    17    18 ar  
    39    17    54 1   
    40    18    19 ar  
    41    18    21 1   
    42    19    20 ar  
    43    19    55 1   
    44    20    56 1   
    45    21    22 ar  
    46    21    39 ar  
    47    22    23 ar  
    48    22    57 1   
    49    23    24 ar  
    50    23    58 1   
    51    24    25 ar  
    52    24    59 1   
    53    25    39 ar  
    54    25    60 1   
    55    26    27 1   
    56    26    40 1   
    57    26    61 1   
    58    26    62 1   
    59    27    28 1   
    60    27    63 1   
    61    27    64 1   
    62    28    29 ar  
    63    28    33 ar  
    64    29    30 ar  
    65    30    31 ar  
    66    30    65 1   
    67    31    32 ar  
    68    31    66 1   
    69    32    33 ar  
    70    32    67 1   
    71    33    68 1   
    72    34    69 1   
    73    34    70 1   
    74    34    71 1   
    75    35    75 1   
    76    37    72 1   
    77    38    73 1   
    78    40    74 1   
    79    42    75 1   
@<TRIPOS>SUBSTRUCTURE
     1 RQU         1 TEMP              0 ****  ****    0 ROOT
