@<TRIPOS>MOLECULE
RQU
   75    79     1     0     0
SMALL
abcg2


@<TRIPOS>ATOM
      1 C1        -115.6480    56.4460   -47.8250 ca         1 RQU       0.417900
      2 N1        -114.3170    56.2280   -47.8120 nb         1 RQU      -0.333000
      3 O1        -117.2430    60.0280   -48.4830 o          1 RQU      -0.622100
      4 C2        -116.1200    54.4540   -46.9490 ca         1 RQU       0.171500
      5 N2        -116.6130    55.6020   -47.4280 nb         1 RQU      -0.278000
      6 O2        -112.6640    64.3070   -48.6500 os         1 RQU      -0.354100
      7 C3        -114.7670    54.1260   -46.8310 ca         1 RQU      -0.140600
      8 C4        -113.8480    55.0820   -47.3070 ca         1 RQU       0.464900
      9 C5        -115.8430    52.4540   -46.0700 cc         1 RQU       0.393700
     10 C7        -118.8620    54.1980   -45.3810 c3         1 RQU      -0.108100
     11 C8        -118.9200    53.1650   -47.7050 c3         1 RQU      -0.108100
     12 C9        -111.5610    55.7130   -47.9740 c3         1 RQU       0.284100
     13 C10       -115.1810    58.8080   -48.2790 c3         1 RQU       0.148800
     14 C11       -116.0190    60.0780   -48.3310 c          1 RQU       0.580100
     15 C12       -111.4020    57.1160   -47.4330 ca         1 RQU      -0.066300
     16 C13       -110.9540    58.1220   -48.2880 ca         1 RQU      -0.106000
     17 C14       -110.7810    59.4190   -47.8350 ca         1 RQU      -0.086500
     18 C15       -111.0740    59.7600   -46.5110 cp         1 RQU      -0.159500
     19 C16       -111.5160    58.7460   -45.6540 ca         1 RQU      -0.086500
     20 C17       -111.6680    57.4430   -46.1070 ca         1 RQU      -0.106000
     21 C18       -110.9490    61.1630   -46.0550 cp         1 RQU       0.405500
     22 C19       -111.7220    61.6590   -44.9990 ca         1 RQU      -0.158000
     23 C20       -111.5810    62.9830   -44.6150 ca         1 RQU      -0.070000
     24 C21       -110.6760    63.7880   -45.2950 ca         1 RQU      -0.171000
     25 C22       -109.9600    63.2220   -46.3420 ca         1 RQU       0.346900
     26 C23       -113.9360    61.4540   -48.0250 c3         1 RQU       0.107000
     27 C24       -113.1840    61.6750   -49.3460 c3         1 RQU      -0.043100
     28 C25       -113.7190    62.8330   -50.1410 ca         1 RQU      -0.114300
     29 C26       -113.4520    64.1590   -49.7520 ca         1 RQU       0.134100
     30 C27       -113.9780    65.2290   -50.4740 ca         1 RQU      -0.193000
     31 C28       -114.7790    64.9870   -51.5890 ca         1 RQU      -0.073000
     32 C29       -115.0550    63.6870   -51.9860 ca         1 RQU      -0.141000
     33 C30       -114.5220    62.6250   -51.2570 ca         1 RQU      -0.071000
     34 C31       -112.3810    65.6260   -48.1900 c3         1 RQU       0.147900
     35 N3        -116.8010    53.3650   -46.4540 na         1 RQU      -0.297300
     36 N4        -114.6150    52.8650   -46.2780 nd         1 RQU      -0.551100
     37 N5        -112.5140    54.8790   -47.2660 nu         1 RQU      -0.924100
     38 N6        -116.0540    57.6580   -48.3070 nu         1 RQU      -0.897100
     39 N7        -110.0850    61.9500   -46.7180 nb         1 RQU      -0.670000
     40 N8        -115.3670    61.2440   -48.1950 ns         1 RQU      -0.500900
     41 H1        -116.1260    51.5040   -45.6420 h5         1 RQU       0.061800
     42 H2        -118.3610    52.1790   -45.8890 h1         1 RQU       0.048700
     43 H5        -118.3680    54.1630   -44.4090 hc         1 RQU       0.051700
     44 H3        -118.7660    55.2050   -45.7860 hc         1 RQU       0.051700
     45 H4        -119.9220    53.9800   -45.2390 hc         1 RQU       0.051700
     46 H7        -119.9790    52.9240   -47.5950 hc         1 RQU       0.051700
     47 H8        -118.8360    54.1410   -48.1830 hc         1 RQU       0.051700
     48 H6        -118.4610    52.4160   -48.3530 hc         1 RQU       0.051700
     49 H10       -110.6020    55.1950   -47.9240 h1         1 RQU       0.055200
     50 H11       -111.8340    55.7800   -49.0310 h1         1 RQU       0.055200
     51 H13       -114.5670    58.8130   -47.3750 h1         1 RQU       0.069200
     52 H14       -114.4840    58.8100   -49.1230 h1         1 RQU       0.069200
     53 H15       -110.7540    57.8880   -49.3280 ha         1 RQU       0.119000
     54 H16       -110.4420    60.1890   -48.5140 ha         1 RQU       0.121500
     55 H17       -111.7330    58.9700   -44.6170 ha         1 RQU       0.121500
     56 H18       -112.0180    56.6760   -45.4280 ha         1 RQU       0.119000
     57 H19       -112.4410    61.0220   -44.5030 ha         1 RQU       0.125000
     58 H20       -112.1750    63.3820   -43.8030 ha         1 RQU       0.119000
     59 H21       -110.5330    64.8270   -45.0320 ha         1 RQU       0.121000
     60 H22       -109.2530    63.8210   -46.9070 h4         1 RQU       0.019100
     61 H24       -113.5080    60.6020   -47.5020 h1         1 RQU       0.060200
     62 H25       -113.8090    62.3220   -47.3810 h1         1 RQU       0.060200
     63 H27       -113.2440    60.7670   -49.9480 hc         1 RQU       0.061200
     64 H26       -112.1330    61.8350   -49.0980 hc         1 RQU       0.061200
     65 H28       -113.7720    66.2470   -50.1780 ha         1 RQU       0.116000
     66 H29       -115.1820    65.8260   -52.1410 ha         1 RQU       0.113000
     67 H30       -115.6770    63.4960   -52.8510 ha         1 RQU       0.119000
     68 H31       -114.7310    61.6050   -51.5580 ha         1 RQU       0.118000
     69 H32       -111.7600    65.5050   -47.3070 h1         1 RQU       0.041033
     70 H33       -111.8390    66.1990   -48.9460 h1         1 RQU       0.041033
     71 H34       -113.3000    66.1530   -47.9220 h1         1 RQU       0.041033
     72 H9        -112.2040    53.9770   -46.9470 hn         1 RQU       0.514000
     73 H12       -117.0330    57.8770   -48.1900 hn         1 RQU       0.517000
     74 H23       -115.9470    62.0660   -48.2830 hn         1 RQU       0.320500
     75 C6        -118.2540    53.1700   -46.3320 c3         1 RQU       0.109300
@<TRIPOS>BOND
     1     1     2 ar  
     2     1     5 ar  
     3     1    38 1   
     4     2     8 ar  
     5     3    14 2   
     6     4     5 ar  
     7     4     7 ar  
     8     4    35 1   
     9     6    29 1   
    10     6    34 1   
    11     7     8 ar  
    12     7    36 1   
    13     8    37 1   
    14     9    35 1   
    15     9    36 2   
    16     9    41 1   
    17    10    43 1   
    18    10    44 1   
    19    10    45 1   
    20    10    75 1   
    21    11    46 1   
    22    11    47 1   
    23    11    48 1   
    24    11    75 1   
    25    12    15 1   
    26    12    37 1   
    27    12    49 1   
    28    12    50 1   
    29    13    14 1   
    30    13    38 1   
    31    13    51 1   
    32    13    52 1   
    33    14    40 1   
    34    15    16 ar  
    35    15    20 ar  
    36    16    17 ar  
    37    16    53 1   
    38    17    18 ar  
    39    17    54 1   
    40    18    19 ar  
    41    18    21 1   
    42    19    20 ar  
    43    19    55 1   
    44    20    56 1   
    45    21    22 ar  
    46    21    39 ar  
    47    22    23 ar  
    48    22    57 1   
    49    23    24 ar  
    50    23    58 1   
    51    24    25 ar  
    52    24    59 1   
    53    25    39 ar  
    54    25    60 1   
    55    26    27 1   
    56    26    40 1   
    57    26    61 1   
    58    26    62 1   
    59    27    28 1   
    60    27    63 1   
    61    27    64 1   
    62    28    29 ar  
    63    28    33 ar  
    64    29    30 ar  
    65    30    31 ar  
    66    30    65 1   
    67    31    32 ar  
    68    31    66 1   
    69    32    33 ar  
    70    32    67 1   
    71    33    68 1   
    72    34    69 1   
    73    34    70 1   
    74    34    71 1   
    75    35    75 1   
    76    37    72 1   
    77    38    73 1   
    78    40    74 1   
    79    42    75 1   
@<TRIPOS>SUBSTRUCTURE
     1 RQU         1 TEMP              0 ****  ****    0 ROOT
