@<TRIPOS>MOLECULE
RQV
   51    54     1     0     0
SMALL
No Charge or Current Charge


@<TRIPOS>ATOM
      1 C2          -4.4880     2.1300    -5.9150 ca         1 RQV      -0.012000
      2 C3          -5.0720     1.2430    -6.8350 ca         1 RQV      -0.036000
      3 O3          -2.5150    -6.3890    -3.2980 os         1 RQV      -0.447000
      4 N2          -7.5440    -5.4160   -11.9410 ns         1 RQV      -0.151000
      5 C1          -3.4760     1.6700    -5.0580 ca         1 RQV      -0.082000
      6 C23         -4.9200     3.4990    -5.8580 cg         1 RQV       0.323000
      7 C4          -4.6660    -0.1020    -6.9110 ca         1 RQV       0.272000
      8 C5          -3.6490    -0.5710    -6.0330 ca         1 RQV      -0.069000
      9 C6          -3.0560     0.3310    -5.1170 ca         1 RQV      -0.097000
     10 N1          -5.2540    -0.9050    -7.8250 nb         1 RQV      -0.671000
     11 C7          -4.8790    -2.1960    -7.9330 cp         1 RQV       0.440500
     12 C8          -3.8720    -2.7280    -7.1000 ca         1 RQV      -0.136000
     13 C9          -3.2520    -1.9330    -6.1150 ca         1 RQV      -0.039300
     14 C10         -5.5760    -3.0180    -8.9850 cp         1 RQV      -0.188500
     15 C11         -6.1780    -2.4100   -10.1190 ca         1 RQV      -0.048000
     16 C12         -6.8280    -3.1740   -11.1040 ca         1 RQV      -0.164000
     17 C13         -6.9030    -4.5760   -10.9880 ca         1 RQV       0.000000
     18 C14         -6.3200    -5.1910    -9.8670 ca         1 RQV      -0.164000
     19 C15         -5.6680    -4.4300    -8.8820 ca         1 RQV      -0.048000
     20 C16         -8.1960    -5.1480   -13.1370 c          1 RQV       0.609100
     21 O1          -8.3390    -4.0310   -13.6210 o          1 RQV      -0.570100
     22 C17         -8.7420    -6.3890   -13.8370 c3         1 RQV      -0.184100
     23 C18         -2.1710    -2.5520    -5.2120 c3         1 RQV       0.211100
     24 N3          -2.3400    -4.0050    -4.9530 n3         1 RQV      -0.727600
     25 C19         -1.1290    -4.6280    -4.3330 c6         1 RQV       0.126800
     26 C20         -1.3270    -6.1550    -4.0930 c6         1 RQV       0.153600
     27 C21         -3.7120    -5.8570    -3.9140 c6         1 RQV       0.153600
     28 C22         -3.5640    -4.3250    -4.1500 c6         1 RQV       0.126800
     29 N4          -5.2780     4.6100    -5.8190 n1         1 RQV      -0.447000
     30 H3          -5.8520     1.5950    -7.5050 ha         1 RQV       0.144000
     31 HN2         -7.5190    -6.3970   -11.6980 hn         1 RQV       0.149000
     32 H22         -3.0090     2.3480    -4.3460 ha         1 RQV       0.127000
     33 H6          -2.2610     0.0240    -4.4450 ha         1 RQV       0.117000
     34 H8          -3.5640    -3.7600    -7.2260 ha         1 RQV       0.144000
     35 H11         -6.1340    -1.3300   -10.2460 ha         1 RQV       0.124000
     36 H12         -7.2650    -2.6510   -11.9480 ha         1 RQV       0.130000
     37 H14         -6.3720    -6.2720    -9.7530 ha         1 RQV       0.130000
     38 H15         -5.2480    -4.9500    -8.0240 ha         1 RQV       0.124000
     39 H173        -9.2510    -6.1550   -14.7780 hc         1 RQV       0.065367
     40 H171        -7.9230    -7.1030   -13.9860 hc         1 RQV       0.065367
     41 H172        -9.3980    -6.9290   -13.1450 hc         1 RQV       0.065367
     42 H182        -1.2000    -2.3720    -5.6930 h1         1 RQV       0.048200
     43 H181        -2.1500    -2.0370    -4.2440 h1         1 RQV       0.048200
     44 H191        -0.2520    -4.4850    -4.9800 h1         1 RQV       0.044450
     45 H192        -0.9030    -4.1470    -3.3700 h1         1 RQV       0.044450
     46 H201        -1.4260    -6.6760    -5.0560 h1         1 RQV       0.051450
     47 H202        -0.4550    -6.5680    -3.5670 h1         1 RQV       0.051450
     48 H211        -4.5730    -6.0550    -3.2600 h1         1 RQV       0.051450
     49 H212        -3.8860    -6.3690    -4.8720 h1         1 RQV       0.051450
     50 H221        -3.5210    -3.8230    -3.1720 h1         1 RQV       0.044450
     51 H222        -4.4690    -3.9600    -4.6570 h1         1 RQV       0.044450
@<TRIPOS>BOND
     1     1     2 ar  
     2     1     5 ar  
     3     1     6 1   
     4     2     7 ar  
     5     2    30 1   
     6     3    26 1   
     7     3    27 1   
     8     4    17 1   
     9     4    20 1   
    10     4    31 1   
    11     5     9 ar  
    12     5    32 1   
    13     6    29 3   
    14     7     8 ar  
    15     7    10 ar  
    16     8     9 ar  
    17     8    13 ar  
    18     9    33 1   
    19    10    11 ar  
    20    11    12 ar  
    21    11    14 1   
    22    12    13 ar  
    23    12    34 1   
    24    13    23 1   
    25    14    15 ar  
    26    14    19 ar  
    27    15    16 ar  
    28    15    35 1   
    29    16    17 ar  
    30    16    36 1   
    31    17    18 ar  
    32    18    19 ar  
    33    18    37 1   
    34    19    38 1   
    35    20    21 2   
    36    20    22 1   
    37    22    39 1   
    38    22    40 1   
    39    22    41 1   
    40    23    24 1   
    41    23    42 1   
    42    23    43 1   
    43    24    25 1   
    44    24    28 1   
    45    25    26 1   
    46    25    44 1   
    47    25    45 1   
    48    26    46 1   
    49    26    47 1   
    50    27    28 1   
    51    27    48 1   
    52    27    49 1   
    53    28    50 1   
    54    28    51 1   
@<TRIPOS>SUBSTRUCTURE
     1 RQV         1 TEMP              0 ****  ****    0 ROOT
