@<TRIPOS>MOLECULE
RQV
   51    54     1     0     0
SMALL
bcc


@<TRIPOS>ATOM
      1 C2          -4.3480     2.1600    -6.1250 ca         1 RQV      -0.012000
      2 C3          -4.9250     1.2900    -7.0200 ca         1 RQV      -0.119300
      3 O3          -2.4060    -6.5700    -3.7810 os         1 RQV      -0.400600
      4 N2          -7.4340    -5.4440   -11.7770 ns         1 RQV      -0.477100
      5 C1          -3.4520     1.6950    -5.1360 ca         1 RQV      -0.100000
      6 C23         -4.6540     3.5530    -6.1940 cg         1 RQV       0.233800
      7 C4          -4.6250    -0.0860    -6.9600 ca         1 RQV       0.402600
      8 C5          -3.7330    -0.5600    -5.9660 ca         1 RQV      -0.134300
      9 C6          -3.1590     0.3630    -5.0640 ca         1 RQV      -0.115000
     10 N1          -5.2140    -0.8910    -7.8680 nb         1 RQV      -0.671000
     11 C7          -4.9380    -2.1720    -7.8520 cp         1 RQV       0.505800
     12 C8          -4.0430    -2.7330    -6.9040 ca         1 RQV      -0.219300
     13 C9          -3.4500    -1.9550    -5.9530 ca         1 RQV      -0.039300
     14 C10         -5.5870    -3.0180    -8.8710 cp         1 RQV      -0.188500
     15 C11         -6.1670    -2.4400   -10.0010 ca         1 RQV      -0.066000
     16 C12         -6.7810    -3.1970   -10.9830 ca         1 RQV      -0.182000
     17 C13         -6.8420    -4.5880   -10.8530 ca         1 RQV       0.092600
     18 C14         -6.2720    -5.1760    -9.7200 ca         1 RQV      -0.182000
     19 C15         -5.6570    -4.4070    -8.7520 ca         1 RQV      -0.066000
     20 C16         -8.0600    -5.1540   -12.9540 c          1 RQV       0.676100
     21 O1          -8.1720    -4.0290   -13.4010 o          1 RQV      -0.570100
     22 C17         -8.6340    -6.3670   -13.6430 c3         1 RQV      -0.184100
     23 C18         -2.4880    -2.5350    -4.9490 c3         1 RQV       0.211100
     24 N3          -2.4940    -3.9770    -4.9250 n3         1 RQV      -0.727600
     25 C19         -1.2530    -4.5330    -4.4130 c6         1 RQV       0.126800
     26 C20         -1.3040    -6.0480    -4.4890 c6         1 RQV       0.130400
     27 C21         -3.6150    -6.0270    -4.2580 c6         1 RQV       0.130400
     28 C22         -3.6190    -4.5140    -4.1780 c6         1 RQV       0.126800
     29 N4          -4.8950     4.6780    -6.2420 n1         1 RQV      -0.357800
     30 H3          -5.6100     1.6400    -7.7810 ha         1 RQV       0.162000
     31 HN2         -7.4020    -6.4210   -11.5270 hn         1 RQV       0.315500
     32 H22         -3.0040     2.3940    -4.4420 ha         1 RQV       0.145000
     33 H6          -2.4700     0.0230    -4.3030 ha         1 RQV       0.135000
     34 H8          -3.8040    -3.7870    -6.9330 ha         1 RQV       0.162000
     35 H11         -6.1300    -1.3670   -10.1230 ha         1 RQV       0.142000
     36 H12         -7.2030    -2.7010   -11.8400 ha         1 RQV       0.148000
     37 H14         -6.3150    -6.2510    -9.5930 ha         1 RQV       0.148000
     38 H15         -5.2460    -4.9140    -7.8890 ha         1 RQV       0.142000
     39 H173        -8.8350    -6.1420   -14.6870 hc         1 RQV       0.065367
     40 H171        -7.9700    -7.2290   -13.5860 hc         1 RQV       0.065367
     41 H172        -9.5760    -6.6450   -13.1660 hc         1 RQV       0.065367
     42 H182        -1.4830    -2.1910    -5.2140 h1         1 RQV       0.048200
     43 H181        -2.6960    -2.1130    -3.9530 h1         1 RQV       0.048200
     44 H191        -0.4170    -4.1770    -5.0200 h1         1 RQV       0.044450
     45 H192        -1.0610    -4.2210    -3.3730 h1         1 RQV       0.044450
     46 H201        -1.3460    -6.3540    -5.5440 h1         1 RQV       0.051450
     47 H202        -0.4010    -6.4750    -4.0510 h1         1 RQV       0.051450
     48 H211        -4.4210    -6.4370    -3.6480 h1         1 RQV       0.051450
     49 H212        -3.7910    -6.3330    -5.3000 h1         1 RQV       0.051450
     50 H221        -3.5850    -4.1930    -3.1220 h1         1 RQV       0.044450
     51 H222        -4.5580    -4.1440    -4.5960 h1         1 RQV       0.044450
@<TRIPOS>BOND
     1     1     2 ar  
     2     1     5 ar  
     3     1     6 1   
     4     2     7 ar  
     5     2    30 1   
     6     3    26 1   
     7     3    27 1   
     8     4    17 1   
     9     4    20 1   
    10     4    31 1   
    11     5     9 ar  
    12     5    32 1   
    13     6    29 3   
    14     7     8 ar  
    15     7    10 ar  
    16     8     9 ar  
    17     8    13 ar  
    18     9    33 1   
    19    10    11 ar  
    20    11    12 ar  
    21    11    14 1   
    22    12    13 ar  
    23    12    34 1   
    24    13    23 1   
    25    14    15 ar  
    26    14    19 ar  
    27    15    16 ar  
    28    15    35 1   
    29    16    17 ar  
    30    16    36 1   
    31    17    18 ar  
    32    18    19 ar  
    33    18    37 1   
    34    19    38 1   
    35    20    21 2   
    36    20    22 1   
    37    22    39 1   
    38    22    40 1   
    39    22    41 1   
    40    23    24 1   
    41    23    42 1   
    42    23    43 1   
    43    24    25 1   
    44    24    28 1   
    45    25    26 1   
    46    25    44 1   
    47    25    45 1   
    48    26    46 1   
    49    26    47 1   
    50    27    28 1   
    51    27    48 1   
    52    27    49 1   
    53    28    50 1   
    54    28    51 1   
@<TRIPOS>SUBSTRUCTURE
     1 RQV         1 TEMP              0 ****  ****    0 ROOT
