@<TRIPOS>MOLECULE
RQW
   59    63     1     0     0
SMALL
bcc


@<TRIPOS>ATOM
      1 C20          7.0610   -13.6080   -22.7240 ca         1 RQW       0.134400
      2 C19          8.3240   -13.1410   -22.3490 ca         1 RQW      -0.093000
      3 C17          7.5640   -13.0820   -20.0670 ca         1 RQW      -0.265500
      4 C16          8.3040   -15.3470   -17.7700 c6         1 RQW       0.242500
      5 C14          9.5030   -15.4910   -15.5530 c6         1 RQW      -0.075400
      6 C18          8.5710   -12.8800   -21.0210 ca         1 RQW      -0.038000
      7 C15          8.1720   -15.6510   -16.2790 c6         1 RQW      -0.098400
      8 C12         10.2020   -13.8100   -17.3200 c6         1 RQW       0.158500
      9 C10         12.2190   -13.0450   -22.3290 ca         1 RQW       0.400200
     10 C9          12.4920   -13.6700   -23.5370 ca         1 RQW      -0.246300
     11 C8          12.7600   -15.0300   -23.5210 ca         1 RQW      -0.088000
     12 C21          5.4590   -14.3290   -24.0230 cc         1 RQW       0.394100
     13 C22          6.0710   -13.7990   -21.7480 ca         1 RQW      -0.084100
     14 C3           9.1040   -16.4360   -18.5150 c3         1 RQW      -0.082700
     15 C6          12.4630   -14.9830   -21.1490 ca         1 RQW       0.385600
     16 C5          12.4560   -15.6610   -19.7990 c3         1 RQW       0.042700
     17 C1           6.5450   -17.8010   -20.7630 c3         1 RQW       0.119700
     18 O1           7.4400   -16.9000   -20.1640 os         1 RQW      -0.409600
     19 C7          12.7430   -15.6980   -22.3060 ca         1 RQW      -0.241300
     20 N2          12.2040   -13.6780   -21.1640 nb         1 RQW      -0.659000
     21 C11         11.4080   -14.4770   -17.9880 c          1 RQW       0.719500
     22 O2          12.5030   -14.1620   -17.5390 o          1 RQW      -0.644500
     23 C13         10.1070   -14.1210   -15.8230 c6         1 RQW      -0.085400
     24 N3           8.9290   -14.0390   -17.9780 n3         1 RQW      -0.773500
     25 S1           7.9510   -12.7690   -18.3670 sy         1 RQW       1.324200
     26 O3           8.7550   -11.5600   -18.2950 o          1 RQW      -0.612300
     27 O4           6.7030   -12.8270   -17.6190 o          1 RQW      -0.612300
     28 N4           6.6760   -13.9170   -24.0050 nd         1 RQW      -0.530100
     29 S2           4.6330   -14.3910   -22.5000 ss         1 RQW      -0.089100
     30 C23          6.3040   -13.5350   -20.4040 ca         1 RQW       0.026000
     31 H1           9.0930   -12.9940   -23.0950 ha         1 RQW       0.153000
     32 H2           7.3070   -15.3080   -18.2110 h1         1 RQW       0.070700
     33 H3           9.3530   -15.6200   -14.4800 hc         1 RQW       0.045700
     34 H4          10.2040   -16.2760   -15.8510 hc         1 RQW       0.045700
     35 H5           9.5510   -12.5360   -20.7160 ha         1 RQW       0.165000
     36 H6           7.4310   -14.9770   -15.8430 hc         1 RQW       0.056700
     37 H7           7.7860   -16.6660   -16.1540 hc         1 RQW       0.056700
     38 H8          10.4400   -12.7500   -17.4210 h1         1 RQW       0.113700
     39 H10         12.4890   -13.1050   -24.4590 ha         1 RQW       0.144000
     40 H11         12.9720   -15.5630   -24.4390 ha         1 RQW       0.138000
     41 H12          4.9420   -14.6320   -24.9240 h5         1 RQW       0.059800
     42 H17          9.7310   -16.9800   -17.8010 hc         1 RQW       0.066700
     43 H18         12.5010   -16.7450   -19.9260 h1         1 RQW       0.072700
     44 H19         13.3420   -15.3670   -19.2400 h1         1 RQW       0.072700
     45 H20          6.0160   -17.2720   -21.5560 h1         1 RQW       0.031367
     46 H21          7.0620   -18.6610   -21.2040 h1         1 RQW       0.031367
     47 H22          5.8050   -18.1830   -20.0490 h1         1 RQW       0.031367
     48 H23         12.9380   -16.7620   -22.2540 ha         1 RQW       0.139000
     49 H24         11.0920   -14.0250   -15.3660 hc         1 RQW       0.063700
     50 H25          9.4750   -13.3510   -15.3720 hc         1 RQW       0.063700
     51 H26          5.5360   -13.6870   -19.6600 ha         1 RQW       0.166000
     52 C2           8.1700   -17.4760   -19.1120 c3         1 RQW       0.134400
     53 C4          10.0320   -15.8650   -19.5770 c3         1 RQW       0.133000
     54 N1          11.2720   -15.3110   -19.0400 n          1 RQW      -0.460800
     55 H9          12.0010   -11.9820   -22.3020 h4         1 RQW       0.022100
     56 H13          7.4970   -17.8620   -18.3310 h1         1 RQW       0.027200
     57 H14          8.7600   -18.3310   -19.4700 h1         1 RQW       0.027200
     58 H15          9.5220   -15.1450   -20.2190 h1         1 RQW       0.053700
     59 H16         10.3380   -16.6890   -20.2250 h1         1 RQW       0.053700
@<TRIPOS>BOND
     1     1     2 ar  
     2     1    13 ar  
     3     1    28 1   
     4     2     6 ar  
     5     2    31 1   
     6     3     6 ar  
     7     3    25 1   
     8     3    30 ar  
     9     4     7 1   
    10     4    14 1   
    11     4    24 1   
    12     4    32 1   
    13     5     7 1   
    14     5    23 1   
    15     5    33 1   
    16     5    34 1   
    17     6    35 1   
    18     7    36 1   
    19     7    37 1   
    20     8    21 1   
    21     8    23 1   
    22     8    24 1   
    23     8    38 1   
    24     9    10 ar  
    25     9    20 ar  
    26     9    55 1   
    27    10    11 ar  
    28    10    39 1   
    29    11    19 ar  
    30    11    40 1   
    31    12    28 2   
    32    12    29 1   
    33    12    41 1   
    34    13    29 1   
    35    13    30 ar  
    36    14    42 1   
    37    14    52 1   
    38    14    53 1   
    39    15    16 1   
    40    15    19 ar  
    41    15    20 ar  
    42    16    43 1   
    43    16    44 1   
    44    16    54 1   
    45    17    18 1   
    46    17    45 1   
    47    17    46 1   
    48    17    47 1   
    49    18    52 1   
    50    19    48 1   
    51    21    22 2   
    52    21    54 1   
    53    23    49 1   
    54    23    50 1   
    55    24    25 1   
    56    25    26 2   
    57    25    27 2   
    58    30    51 1   
    59    52    56 1   
    60    52    57 1   
    61    53    54 1   
    62    53    58 1   
    63    53    59 1   
@<TRIPOS>SUBSTRUCTURE
     1 RQW         1 TEMP              0 ****  ****    0 ROOT
