@<TRIPOS>MOLECULE
RQW
   59    63     1     0     0
SMALL
No Charge or Current Charge


@<TRIPOS>ATOM
      1 C20          4.9060   -13.6440   -21.7580 ca         1 RQW       0.134400
      2 C19          6.1670   -13.0930   -22.0260 ca         1 RQW      -0.075000
      3 C17          6.5960   -12.9590   -19.6210 ca         1 RQW      -0.265500
      4 C16          8.3960   -15.1980   -18.4410 c6         1 RQW       0.242500
      5 C14          9.4410   -15.7210   -16.1650 c6         1 RQW      -0.075400
      6 C18          7.0180   -12.7540   -20.9560 ca         1 RQW      -0.020000
      7 C15          8.1630   -15.8060   -17.0300 c6         1 RQW      -0.098400
      8 C12         10.1070   -13.5740   -17.4880 c6         1 RQW       0.158500
      9 C10         14.7290   -14.1510   -21.8930 ca         1 RQW       0.334900
     10 C9          14.7300   -15.1210   -22.9100 ca         1 RQW      -0.163000
     11 C8          14.1270   -16.3650   -22.6690 ca         1 RQW      -0.070000
     12 C21          2.9170   -14.5070   -22.1250 cc         1 RQW       0.394100
     13 C22          4.5050   -13.8420   -20.4520 ca         1 RQW      -0.211000
     14 C3           9.3050   -16.1420   -19.3100 c3         1 RQW      -0.082700
     15 C6          13.5740   -15.5560   -20.4450 ca         1 RQW       0.320300
     16 C5          12.9450   -15.7700   -19.0620 c3         1 RQW       0.042700
     17 C1           7.2850   -16.4050   -22.4620 c3         1 RQW       0.142900
     18 O1           8.1070   -15.8850   -21.4050 os         1 RQW      -0.456000
     19 C7          13.5420   -16.5820   -21.4110 ca         1 RQW      -0.158000
     20 N2          14.1660   -14.3590   -20.6810 nb         1 RQW      -0.659000
     21 C11         11.4760   -13.9470   -18.1580 c          1 RQW       0.577000
     22 O2          12.4080   -13.1500   -18.1370 o          1 RQW      -0.569000
     23 C13          9.9230   -14.2580   -16.0950 c6         1 RQW      -0.085400
     24 N3           8.8740   -13.7780   -18.3390 n3         1 RQW      -0.773500
     25 S1           7.6970   -12.5430   -18.2620 sy         1 RQW       1.182600
     26 O3           8.3990   -11.3130   -18.6460 o          1 RQW      -0.541500
     27 O4           6.9970   -12.6700   -16.9790 o          1 RQW      -0.541500
     28 N4           4.0040   -14.0210   -22.7460 nd         1 RQW      -0.530100
     29 S2           2.9000   -14.5460   -20.3480 ss         1 RQW       0.037800
     30 C23          5.3230   -13.5080   -19.3610 ca         1 RQW       0.044000
     31 H1           6.4900   -12.9390   -23.0520 ha         1 RQW       0.135000
     32 H2           7.4150   -15.2140   -18.9360 h1         1 RQW       0.070700
     33 H3           9.2310   -16.0930   -15.1530 hc         1 RQW       0.045700
     34 H4          10.2370   -16.3610   -16.5680 hc         1 RQW       0.045700
     35 H5           8.0040   -12.3430   -21.1640 ha         1 RQW       0.147000
     36 H6           7.3430   -15.2780   -16.5280 hc         1 RQW       0.056700
     37 H7           7.8350   -16.8510   -17.1170 hc         1 RQW       0.056700
     38 H8          10.2390   -12.5000   -17.2910 h1         1 RQW       0.113700
     39 H10         15.1970   -14.9040   -23.8670 ha         1 RQW       0.126000
     40 H11         14.1140   -17.1380   -23.4350 ha         1 RQW       0.120000
     41 H12          2.0450   -14.8780   -22.6480 h5         1 RQW       0.059800
     42 H17          9.6690   -16.9640   -18.6850 hc         1 RQW       0.066700
     43 H18         12.8690   -16.8500   -18.8820 h1         1 RQW       0.072700
     44 H19         13.6380   -15.3850   -18.3030 h1         1 RQW       0.072700
     45 H20          7.0460   -15.6150   -23.1830 h1         1 RQW       0.031367
     46 H21          7.8020   -17.2120   -22.9980 h1         1 RQW       0.031367
     47 H22          6.3420   -16.8000   -22.0620 h1         1 RQW       0.031367
     48 H23         13.0670   -17.5330   -21.1870 ha         1 RQW       0.121000
     49 H24         10.8640   -14.2040   -15.5300 hc         1 RQW       0.063700
     50 H25          9.1960   -13.6770   -15.5120 hc         1 RQW       0.063700
     51 H26          4.9780   -13.6810   -18.3430 ha         1 RQW       0.148000
     52 C2           8.5070   -16.8570   -20.4260 c3         1 RQW       0.157600
     53 C4          10.5710   -15.4740   -19.8720 c3         1 RQW       0.133000
     54 N1          11.5920   -15.1760   -18.8410 n          1 RQW      -0.393800
     55 H9          15.1920   -13.1780   -22.0530 h4         1 RQW       0.022100
     56 H13          7.6300   -17.3520   -19.9870 h1         1 RQW       0.027200
     57 H14          9.1360   -17.6300   -20.8890 h1         1 RQW       0.027200
     58 H15         10.3040   -14.5510   -20.4040 h1         1 RQW       0.053700
     59 H16         11.0020   -16.1520   -20.6180 h1         1 RQW       0.053700
@<TRIPOS>BOND
     1     1     2 ar  
     2     1    13 ar  
     3     1    28 1   
     4     2     6 ar  
     5     2    31 1   
     6     3     6 ar  
     7     3    25 1   
     8     3    30 ar  
     9     4     7 1   
    10     4    14 1   
    11     4    24 1   
    12     4    32 1   
    13     5     7 1   
    14     5    23 1   
    15     5    33 1   
    16     5    34 1   
    17     6    35 1   
    18     7    36 1   
    19     7    37 1   
    20     8    21 1   
    21     8    23 1   
    22     8    24 1   
    23     8    38 1   
    24     9    10 ar  
    25     9    20 ar  
    26     9    55 1   
    27    10    11 ar  
    28    10    39 1   
    29    11    19 ar  
    30    11    40 1   
    31    12    28 2   
    32    12    29 1   
    33    12    41 1   
    34    13    29 1   
    35    13    30 ar  
    36    14    42 1   
    37    14    52 1   
    38    14    53 1   
    39    15    16 1   
    40    15    19 ar  
    41    15    20 ar  
    42    16    43 1   
    43    16    44 1   
    44    16    54 1   
    45    17    18 1   
    46    17    45 1   
    47    17    46 1   
    48    17    47 1   
    49    18    52 1   
    50    19    48 1   
    51    21    22 2   
    52    21    54 1   
    53    23    49 1   
    54    23    50 1   
    55    24    25 1   
    56    25    26 2   
    57    25    27 2   
    58    30    51 1   
    59    52    56 1   
    60    52    57 1   
    61    53    54 1   
    62    53    58 1   
    63    53    59 1   
@<TRIPOS>SUBSTRUCTURE
     1 RQW         1 TEMP              0 ****  ****    0 ROOT
