@<TRIPOS>MOLECULE
RQX
   40    40     1     0     0
SMALL
bcc


@<TRIPOS>ATOM
      1 O2           3.1370    -2.1680     0.9500 o          1 RQX      -0.511100
      2 C7           2.3770    -1.3480     0.4810 c          1 RQX       0.565500
      3 C2           1.1870    -1.7440    -0.2980 cc         1 RQX      -0.161400
      4 C1           0.9470    -3.2160    -0.4500 c3         1 RQX      -0.050900
      5 C6           2.6680     0.1070     0.6930 cc         1 RQX       0.121800
      6 N            3.7500     0.3810     1.4260 nv         1 RQX      -0.842600
      7 C5           1.8390     1.0400     0.1590 cd         1 RQX      -0.152100
      8 O3           2.0870     2.3630     0.3710 os         1 RQX      -0.311900
      9 C8           2.7540     3.0140    -0.7050 c3         1 RQX       0.113700
     10 C4           0.7030     0.6620    -0.6490 c          1 RQX       0.568500
     11 O1          -0.0190     1.5020    -1.1630 o          1 RQX      -0.512100
     12 C3           0.4150    -0.7960    -0.8570 cd         1 RQX      -0.102400
     13 C9          -0.8160    -1.1120    -1.6560 c3         1 RQX       0.001000
     14 C10         -2.0110    -1.1140    -0.7430 c2         1 RQX      -0.186200
     15 C11         -3.0660    -0.2960    -0.7680 c2         1 RQX      -0.082400
     16 C12         -3.2840     0.7920    -1.7760 c3         1 RQX      -0.055900
     17 C13         -4.1380    -0.4150     0.2830 c3         1 RQX      -0.044200
     18 C14         -4.1220     0.7410     1.2860 c3         1 RQX      -0.073400
     19 C15         -5.2380     0.6320     2.3160 c3         1 RQX      -0.090100
     20 H1           1.3480    -3.7750     0.3930 hc         1 RQX       0.054033
     21 H2          -0.1130    -3.4480    -0.5250 hc         1 RQX       0.054033
     22 H3           1.4330    -3.5960    -1.3510 hc         1 RQX       0.054033
     23 H4           4.3200    -0.3620     1.7920 hn         1 RQX       0.451300
     24 H5           4.0120     1.3280     1.6370 hn         1 RQX       0.451300
     25 H6           2.1250     3.0750    -1.5940 h1         1 RQX       0.034700
     26 H7           2.9910     4.0230    -0.3740 h1         1 RQX       0.034700
     27 H8           3.6850     2.5040    -0.9670 h1         1 RQX       0.034700
     28 H9          -0.9290    -0.3860    -2.4570 hc         1 RQX       0.063700
     29 H10         -0.7070    -2.0890    -2.1290 hc         1 RQX       0.063700
     30 H11         -1.9730    -1.8660     0.0420 ha         1 RQX       0.115000
     31 H12         -4.2720     0.6890    -2.2310 hc         1 RQX       0.043367
     32 H13         -3.2650     1.7750    -1.3000 hc         1 RQX       0.043367
     33 H14         -2.5470     0.8060    -2.5750 hc         1 RQX       0.043367
     34 H15         -5.1220    -0.4500    -0.1990 hc         1 RQX       0.041700
     35 H16         -4.0260    -1.3570     0.8290 hc         1 RQX       0.041700
     36 H17         -3.1520     0.7590     1.7900 hc         1 RQX       0.043700
     37 H18         -4.2110     1.6930     0.7580 hc         1 RQX       0.043700
     38 H19         -5.1580    -0.2900     2.8940 hc         1 RQX       0.031033
     39 H20         -5.2120     1.4660     3.0180 hc         1 RQX       0.031033
     40 H21         -6.2180     0.6340     1.8360 hc         1 RQX       0.031033
@<TRIPOS>BOND
     1     1     2 2   
     2     2     3 1   
     3     2     5 1   
     4     3     4 1   
     5     3    12 2   
     6     4    20 1   
     7     4    21 1   
     8     4    22 1   
     9     5     6 1   
    10     5     7 2   
    11     6    23 1   
    12     6    24 1   
    13     7     8 1   
    14     7    10 1   
    15     8     9 1   
    16     9    25 1   
    17     9    26 1   
    18     9    27 1   
    19    10    11 2   
    20    10    12 1   
    21    12    13 1   
    22    13    14 1   
    23    13    28 1   
    24    13    29 1   
    25    14    15 2   
    26    14    30 1   
    27    15    16 1   
    28    15    17 1   
    29    16    31 1   
    30    16    32 1   
    31    16    33 1   
    32    17    18 1   
    33    17    34 1   
    34    17    35 1   
    35    18    19 1   
    36    18    36 1   
    37    18    37 1   
    38    19    38 1   
    39    19    39 1   
    40    19    40 1   
@<TRIPOS>SUBSTRUCTURE
     1 RQX         1 TEMP              0 ****  ****    0 ROOT
