@<TRIPOS>MOLECULE
RQX
   40    40     1     0     0
SMALL
No Charge or Current Charge


@<TRIPOS>ATOM
      1 O2           3.1930    -2.4060     1.1360 o          1 RQX      -0.511100
      2 C7           2.5050    -1.5440     0.5870 c          1 RQX       0.565500
      3 C2           1.2440    -1.8820    -0.1390 cc         1 RQX      -0.161400
      4 C1           0.8640    -3.3570    -0.0900 c3         1 RQX      -0.050900
      5 C6           2.8780    -0.0810     0.6430 cc         1 RQX       0.121800
      6 N            4.0180     0.2120     1.3880 nv         1 RQX      -0.953000
      7 C5           2.1620     0.8880    -0.0310 cd         1 RQX      -0.152100
      8 O3           2.6650     2.1810     0.1030 os         1 RQX      -0.335100
      9 C8           2.0640     3.3390    -0.5080 c3         1 RQX       0.136900
     10 C4           0.9370     0.5380    -0.8390 c          1 RQX       0.568500
     11 O1           0.2960     1.3770    -1.4630 o          1 RQX      -0.512100
     12 C3           0.5320    -0.9110    -0.8410 cd         1 RQX      -0.102400
     13 C9          -0.7220    -1.2270    -1.6480 c3         1 RQX       0.001000
     14 C10         -1.9690    -1.1140    -0.7840 c2         1 RQX      -0.236200
     15 C11         -2.9820    -0.2280    -0.8680 c2         1 RQX      -0.082400
     16 C12         -3.1090     0.8950    -1.8920 c3         1 RQX      -0.055900
     17 C13         -4.1600    -0.2770     0.0960 c3         1 RQX      -0.044200
     18 C14         -4.0750     0.7900     1.2110 c3         1 RQX      -0.073400
     19 C15         -5.2270     0.6930     2.2290 c3         1 RQX      -0.090100
     20 H1           1.1170    -3.8170     0.8730 hc         1 RQX       0.054033
     21 H2          -0.2120    -3.5130    -0.2200 hc         1 RQX       0.054033
     22 H3           1.3820    -3.9180    -0.8760 hc         1 RQX       0.054033
     23 H4           4.6020    -0.5370     1.7620 hn         1 RQX       0.506500
     24 H5           4.4030     1.1560     1.3700 hn         1 RQX       0.506500
     25 H6           1.0360     3.4810    -0.1540 h1         1 RQX       0.034700
     26 H7           2.6350     4.2390    -0.2500 h1         1 RQX       0.034700
     27 H8           2.0600     3.2480    -1.6020 h1         1 RQX       0.034700
     28 H9          -0.7780    -0.6000    -2.5430 hc         1 RQX       0.063700
     29 H10         -0.6620    -2.2400    -2.0630 hc         1 RQX       0.063700
     30 H11         -2.0010    -1.8720    -0.0000 ha         1 RQX       0.165000
     31 H12         -4.0420     0.8000    -2.4610 hc         1 RQX       0.043367
     32 H13         -3.1180     1.8760    -1.4050 hc         1 RQX       0.043367
     33 H14         -2.2950     0.9140    -2.6210 hc         1 RQX       0.043367
     34 H15         -5.1060    -0.1650    -0.4490 hc         1 RQX       0.041700
     35 H16         -4.2080    -1.2640     0.5730 hc         1 RQX       0.041700
     36 H17         -3.1200     0.6820     1.7400 hc         1 RQX       0.043700
     37 H18         -4.0820     1.7920     0.7660 hc         1 RQX       0.043700
     38 H19         -5.2260    -0.2850     2.7260 hc         1 RQX       0.031033
     39 H20         -5.1240     1.4680     2.9980 hc         1 RQX       0.031033
     40 H21         -6.1960     0.8280     1.7330 hc         1 RQX       0.031033
@<TRIPOS>BOND
     1     1     2 2   
     2     2     3 1   
     3     2     5 1   
     4     3     4 1   
     5     3    12 2   
     6     4    20 1   
     7     4    21 1   
     8     4    22 1   
     9     5     6 1   
    10     5     7 2   
    11     6    23 1   
    12     6    24 1   
    13     7     8 1   
    14     7    10 1   
    15     8     9 1   
    16     9    25 1   
    17     9    26 1   
    18     9    27 1   
    19    10    11 2   
    20    10    12 1   
    21    12    13 1   
    22    13    14 1   
    23    13    28 1   
    24    13    29 1   
    25    14    15 2   
    26    14    30 1   
    27    15    16 1   
    28    15    17 1   
    29    16    31 1   
    30    16    32 1   
    31    16    33 1   
    32    17    18 1   
    33    17    34 1   
    34    17    35 1   
    35    18    19 1   
    36    18    36 1   
    37    18    37 1   
    38    19    38 1   
    39    19    39 1   
    40    19    40 1   
@<TRIPOS>SUBSTRUCTURE
     1 RQX         1 TEMP              0 ****  ****    0 ROOT
