@<TRIPOS>MOLECULE
RQY
   55    58     1     0     0
SMALL
No Charge or Current Charge


@<TRIPOS>ATOM
      1 C10         24.6900   -27.6280    45.9760 c6         1 RQY      -0.011400
      2 C13         23.7100   -26.4850    46.3560 c6         1 RQY      -0.069900
      3 C17         24.2880   -28.2230    44.5990 c6         1 RQY      -0.069900
      4 C20         28.9080   -32.3660    53.2610 ca         1 RQY       0.363800
      5 C22         27.9840   -34.3010    52.3860 ca         1 RQY       0.363800
      6 C26         29.8150   -31.7450    54.3050 c3         1 RQY      -0.145900
      7 C01         24.7790   -28.7050    47.0690 ca         1 RQY      -0.107300
      8 C02         23.6350   -29.4600    47.4410 ca         1 RQY      -0.079000
      9 C03         23.7170   -30.4450    48.4460 ca         1 RQY      -0.133000
     10 C04         24.9560   -30.6540    49.0610 ca         1 RQY      -0.040200
     11 C05         26.0690   -29.9350    48.7110 ca         1 RQY      -0.097800
     12 C06         26.0160   -28.9460    47.7150 ca         1 RQY      -0.053000
     13 N07         25.2800   -31.5490    50.0610 na         1 RQY      -0.215700
     14 C08         26.6320   -31.3930    50.4010 cc         1 RQY      -0.023300
     15 C09         27.1600   -30.4220    49.5450 cd         1 RQY      -0.096400
     16 C11         28.6180   -30.0050    49.4330 c3         1 RQY       0.007500
     17 C12         28.8350   -28.5380    49.8660 c3         1 RQY      -0.083100
     18 C14         23.6270   -25.4240    45.2310 c6         1 RQY       0.159300
     19 N15         23.2550   -26.0400    43.9340 n7         1 RQY      -0.863400
     20 C16         24.1900   -27.1150    43.5210 c6         1 RQY       0.159300
     21 C18         27.3890   -32.1760    51.3770 ca         1 RQY       0.012200
     22 C19         28.2190   -31.5670    52.3330 ca         1 RQY      -0.163500
     23 N21         28.7970   -33.7120    53.2900 nb         1 RQY      -0.681000
     24 C23         27.2640   -33.5740    51.4230 ca         1 RQY      -0.163500
     25 H1          25.6850   -27.1770    45.8570 hc         1 RQY       0.042700
     26 H2          24.0360   -26.0070    47.2900 hc         1 RQY       0.048700
     27 H3          22.7070   -26.8890    46.5460 hc         1 RQY       0.048700
     28 H4          23.3220   -28.7400    44.6730 hc         1 RQY       0.048700
     29 H5          25.0240   -28.9760    44.2870 hc         1 RQY       0.048700
     30 H6          29.0520   -31.3520    47.7700 hc         1 RQY       0.033867
     31 H7          28.7370   -29.6820    47.2590 hc         1 RQY       0.033867
     32 H8          30.2820   -30.0980    48.0190 hc         1 RQY       0.033867
     33 H9          29.2710   -31.5790    55.2420 hc         1 RQY       0.051533
     34 H10         30.6760   -32.3880    54.5230 hc         1 RQY       0.051533
     35 H11         30.2050   -30.7770    53.9670 hc         1 RQY       0.051533
     36 H12         22.6800   -29.2820    46.9510 ha         1 RQY       0.114000
     37 H13         22.8420   -31.0230    48.7340 ha         1 RQY       0.114000
     38 H14         26.8980   -28.3740    47.4470 ha         1 RQY       0.113000
     39 H15         24.6380   -32.2050    50.4900 hn         1 RQY       0.351000
     40 H16         29.2160   -30.6150    50.1170 hc         1 RQY       0.048700
     41 H17         28.4510   -28.3780    50.8810 hc         1 RQY       0.033867
     42 H18         29.9030   -28.2890    49.8640 hc         1 RQY       0.033867
     43 H19         28.3220   -27.8420    49.1940 hc         1 RQY       0.033867
     44 H20         24.6010   -24.9220    45.1290 h1         1 RQY       0.027700
     45 H21         22.8850   -24.6580    45.5000 h1         1 RQY       0.027700
     46 H22         23.2490   -25.3100    43.2100 hn         1 RQY       0.409000
     47 H24         23.8470   -27.5530    42.5720 h1         1 RQY       0.027700
     48 H25         25.1870   -26.6840    43.3470 h1         1 RQY       0.027700
     49 H26         28.3230   -30.4860    52.3660 ha         1 RQY       0.125500
     50 H27         26.6270   -34.0940    50.7130 ha         1 RQY       0.125500
     51 H28         27.9140   -36.1680    53.4950 hc         1 RQY       0.051533
     52 H29         26.9590   -36.1760    52.0070 hc         1 RQY       0.051533
     53 H30         28.7250   -36.2790    51.9210 hc         1 RQY       0.051533
     54 C25         27.8900   -35.8130    52.4570 c3         1 RQY      -0.145900
     55 C24         29.2040   -30.2980    48.0330 c3         1 RQY      -0.083100
@<TRIPOS>BOND
     1     1     2 1   
     2     1     3 1   
     3     1     7 1   
     4     1    25 1   
     5     2    18 1   
     6     2    26 1   
     7     2    27 1   
     8     3    20 1   
     9     3    28 1   
    10     3    29 1   
    11     4     6 1   
    12     4    22 ar  
    13     4    23 ar  
    14     5    23 ar  
    15     5    24 ar  
    16     5    54 1   
    17     6    33 1   
    18     6    34 1   
    19     6    35 1   
    20     7     8 ar  
    21     7    12 ar  
    22     8     9 ar  
    23     8    36 1   
    24     9    10 ar  
    25     9    37 1   
    26    10    11 ar  
    27    10    13 1   
    28    11    12 ar  
    29    11    15 1   
    30    12    38 1   
    31    13    14 1   
    32    13    39 1   
    33    14    15 2   
    34    14    21 1   
    35    15    16 1   
    36    16    17 1   
    37    16    40 1   
    38    16    55 1   
    39    17    41 1   
    40    17    42 1   
    41    17    43 1   
    42    18    19 1   
    43    18    44 1   
    44    18    45 1   
    45    19    20 1   
    46    19    46 1   
    47    20    47 1   
    48    20    48 1   
    49    21    22 ar  
    50    21    24 ar  
    51    22    49 1   
    52    24    50 1   
    53    30    55 1   
    54    31    55 1   
    55    32    55 1   
    56    51    54 1   
    57    52    54 1   
    58    53    54 1   
@<TRIPOS>SUBSTRUCTURE
     1 RQY         1 TEMP              0 ****  ****    0 ROOT
