@<TRIPOS>MOLECULE
RQY
   55    58     1     0     0
SMALL
abcg2


@<TRIPOS>ATOM
      1 C10         24.7090   -27.6980    45.9640 c6         1 RQY      -0.011400
      2 C13         23.7460   -26.5850    46.3920 c6         1 RQY      -0.069900
      3 C17         24.2760   -28.2580    44.6050 c6         1 RQY      -0.069900
      4 C20         28.8900   -32.4170    53.2040 ca         1 RQY       0.363800
      5 C22         27.7710   -34.2700    52.4410 ca         1 RQY       0.363800
      6 C26         29.8550   -31.8530    54.2020 c3         1 RQY      -0.145900
      7 C01         24.8580   -28.7640    47.0190 ca         1 RQY      -0.107300
      8 C02         23.7570   -29.5680    47.3850 ca         1 RQY      -0.079000
      9 C03         23.8530   -30.5430    48.3550 ca         1 RQY      -0.133000
     10 C04         25.0890   -30.7190    48.9760 ca         1 RQY      -0.040200
     11 C05         26.2110   -29.9330    48.6460 ca         1 RQY      -0.097800
     12 C06         26.0730   -28.9530    47.6510 ca         1 RQY      -0.053000
     13 N07         25.4670   -31.5890    49.9510 na         1 RQY      -0.215700
     14 C08         26.7820   -31.3640    50.2820 cc         1 RQY      -0.023300
     15 C09         27.2930   -30.3620    49.4870 cd         1 RQY      -0.096400
     16 C11         28.7110   -29.8700    49.4460 c3         1 RQY       0.007500
     17 C12         28.8250   -28.4230    49.9310 c3         1 RQY      -0.083100
     18 C14         23.6100   -25.5360    45.2980 c6         1 RQY       0.159300
     19 N15         23.1620   -26.1600    44.0660 n7         1 RQY      -0.863400
     20 C16         24.1190   -27.1390    43.5850 c6         1 RQY       0.159300
     21 C18         27.4210   -32.1730    51.3180 ca         1 RQY       0.012200
     22 C19         28.3040   -31.6110    52.2400 ca         1 RQY      -0.163500
     23 N21         28.6250   -33.7210    53.2980 nb         1 RQY      -0.681000
     24 C23         27.1510   -33.5320    51.4350 ca         1 RQY      -0.163500
     25 H1          25.6950   -27.2360    45.8250 hc         1 RQY       0.042700
     26 H2          24.1030   -26.1150    47.3120 hc         1 RQY       0.048700
     27 H3          22.7600   -27.0080    46.6090 hc         1 RQY       0.048700
     28 H4          23.3220   -28.7850    44.7020 hc         1 RQY       0.048700
     29 H5          25.0100   -28.9850    44.2480 hc         1 RQY       0.048700
     30 H6          29.2820   -31.0780    47.7280 hc         1 RQY       0.033867
     31 H7          28.8450   -29.4240    47.3070 hc         1 RQY       0.033867
     32 H8          30.3890   -29.7520    48.0830 hc         1 RQY       0.033867
     33 H9          29.5120   -32.0370    55.2210 hc         1 RQY       0.051533
     34 H10         30.8320   -32.3280    54.1020 hc         1 RQY       0.051533
     35 H11         29.9860   -30.7800    54.0750 hc         1 RQY       0.051533
     36 H12         22.8030   -29.4180    46.8940 ha         1 RQY       0.114000
     37 H13         22.9980   -31.1510    48.6230 ha         1 RQY       0.114000
     38 H14         26.9130   -28.3260    47.3740 ha         1 RQY       0.113000
     39 H15         24.8440   -32.2030    50.4510 hn         1 RQY       0.351000
     40 H16         29.3000   -30.4880    50.1270 hc         1 RQY       0.048700
     41 H17         28.4410   -28.3150    50.9460 hc         1 RQY       0.033867
     42 H18         29.8670   -28.0970    49.9310 hc         1 RQY       0.033867
     43 H19         28.2650   -27.7400    49.2900 hc         1 RQY       0.033867
     44 H20         24.5780   -25.0210    45.1810 h1         1 RQY       0.027700
     45 H21         22.8820   -24.7780    45.5950 h1         1 RQY       0.027700
     46 H22         23.0190   -25.4510    43.3590 hn         1 RQY       0.409000
     47 H24         23.7620   -27.5480    42.6370 h1         1 RQY       0.027700
     48 H25         25.1110   -26.6970    43.3870 h1         1 RQY       0.027700
     49 H26         28.5150   -30.5500    52.2270 ha         1 RQY       0.125500
     50 H27         26.4790   -34.0290    50.7460 ha         1 RQY       0.125500
     51 H28         27.9780   -36.1400    53.4650 hc         1 RQY       0.051533
     52 H29         26.4280   -35.9370    52.6360 hc         1 RQY       0.051533
     53 H30         27.8750   -36.2850    51.7090 hc         1 RQY       0.051533
     54 C25         27.4990   -35.7380    52.5750 c3         1 RQY      -0.145900
     55 C24         29.3370   -30.0400    48.0600 c3         1 RQY      -0.083100
@<TRIPOS>BOND
     1     1     2 1   
     2     1     3 1   
     3     1     7 1   
     4     1    25 1   
     5     2    18 1   
     6     2    26 1   
     7     2    27 1   
     8     3    20 1   
     9     3    28 1   
    10     3    29 1   
    11     4     6 1   
    12     4    22 ar  
    13     4    23 ar  
    14     5    23 ar  
    15     5    24 ar  
    16     5    54 1   
    17     6    33 1   
    18     6    34 1   
    19     6    35 1   
    20     7     8 ar  
    21     7    12 ar  
    22     8     9 ar  
    23     8    36 1   
    24     9    10 ar  
    25     9    37 1   
    26    10    11 ar  
    27    10    13 1   
    28    11    12 ar  
    29    11    15 1   
    30    12    38 1   
    31    13    14 1   
    32    13    39 1   
    33    14    15 2   
    34    14    21 1   
    35    15    16 1   
    36    16    17 1   
    37    16    40 1   
    38    16    55 1   
    39    17    41 1   
    40    17    42 1   
    41    17    43 1   
    42    18    19 1   
    43    18    44 1   
    44    18    45 1   
    45    19    20 1   
    46    19    46 1   
    47    20    47 1   
    48    20    48 1   
    49    21    22 ar  
    50    21    24 ar  
    51    22    49 1   
    52    24    50 1   
    53    30    55 1   
    54    31    55 1   
    55    32    55 1   
    56    51    54 1   
    57    52    54 1   
    58    53    54 1   
@<TRIPOS>SUBSTRUCTURE
     1 RQY         1 TEMP              0 ****  ****    0 ROOT
