@<TRIPOS>MOLECULE
RQZ
   39    41     1     0     0
SMALL
abcg2


@<TRIPOS>ATOM
      1 C7         -70.1320     4.0340   -48.9690 ca         1 RQZ      -0.168000
      2 C9         -67.5460     1.4130   -49.0610 c          1 RQZ       0.608100
      3 N1         -73.5450     8.9620   -48.8690 nb         1 RQZ      -0.688000
      4 C2         -73.5210     9.3920   -47.6200 ca         1 RQZ       0.382900
      5 N2         -68.4910     2.3550   -49.3220 ns         1 RQZ      -0.150000
      6 C10        -66.6710     1.0720   -50.2500 c3         1 RQZ      -0.166400
      7 C4         -72.3320     6.9830   -48.1030 ca         1 RQZ      -0.136800
      8 N3         -72.8590     7.1580   -50.2710 na         1 RQZ      -0.319400
      9 C6         -71.1070     4.6860   -48.2190 ca         1 RQZ       0.014200
     10 O1         -72.0340     8.8520   -44.3680 o          1 RQZ      -0.605100
     11 N          -73.8100    10.1510   -44.8500 nt         1 RQZ      -0.604000
     12 C1         -72.9200     8.6980   -46.5570 ca         1 RQZ      -0.245600
     13 C16        -72.2960     7.4820   -46.8090 ca         1 RQZ       0.034000
     14 C5         -71.8350     5.8200   -48.7850 cc         1 RQZ      -0.067400
     15 C15        -72.1860     5.9830   -50.0990 cd         1 RQZ      -0.143100
     16 C3         -72.9660     7.7910   -49.0770 ca         1 RQZ       0.380500
     17 C14        -71.3730     4.2260   -46.9280 ca         1 RQZ      -0.126000
     18 C13        -70.6700     3.1450   -46.4240 ca         1 RQZ      -0.083000
     19 C12        -69.7030     2.4890   -47.1730 ca         1 RQZ      -0.129000
     20 C8         -69.4330     2.9360   -48.4680 ca         1 RQZ      -0.016000
     21 O          -67.4120     0.8750   -47.9760 o          1 RQZ      -0.578100
     22 C11        -65.9990     2.2760   -50.9060 c3         1 RQZ      -0.089100
     23 H1         -69.8970     4.4000   -49.9630 ha         1 RQZ       0.104000
     24 H2         -73.9810    10.3600   -47.4550 h4         1 RQZ       0.017100
     25 H3         -68.4990     2.7240   -50.2610 hn         1 RQZ       0.147000
     26 H4         -67.2840     0.5450   -50.9860 hc         1 RQZ       0.070700
     27 H5         -65.9160     0.3680   -49.9030 hc         1 RQZ       0.070700
     28 H6         -73.2320     7.4920   -51.1450 hn         1 RQZ       0.364000
     29 H7         -73.8340    10.5310   -43.9170 hn         1 RQZ       0.313000
     30 H8         -74.5990    10.3490   -45.4390 hn         1 RQZ       0.313000
     31 H9         -71.8040     6.9490   -46.0060 ha         1 RQZ       0.148000
     32 H10        -72.0170     5.3260   -50.9380 h4         1 RQZ       0.219000
     33 H11        -72.1440     4.6890   -46.3270 ha         1 RQZ       0.118000
     34 H12        -70.8820     2.7930   -45.4230 ha         1 RQZ       0.117000
     35 H13        -69.1800     1.6480   -46.7510 ha         1 RQZ       0.148000
     36 H14        -65.2990     1.9370   -51.6680 hc         1 RQZ       0.040700
     37 H15        -66.7100     2.9370   -51.4020 hc         1 RQZ       0.040700
     38 H16        -65.4410     2.8670   -50.1790 hc         1 RQZ       0.040700
     39 C          -72.8810     9.2350   -45.1650 c          1 RQZ       0.625700
@<TRIPOS>BOND
     1     1     9 ar  
     2     1    20 ar  
     3     1    23 1   
     4     2     5 1   
     5     2     6 1   
     6     2    21 2   
     7     3     4 ar  
     8     3    16 ar  
     9     4    12 ar  
    10     4    24 1   
    11     5    20 1   
    12     5    25 1   
    13     6    22 1   
    14     6    26 1   
    15     6    27 1   
    16     7    13 ar  
    17     7    14 1   
    18     7    16 ar  
    19     8    15 1   
    20     8    16 1   
    21     8    28 1   
    22     9    14 1   
    23     9    17 ar  
    24    10    39 2   
    25    11    29 1   
    26    11    30 1   
    27    11    39 1   
    28    12    13 ar  
    29    12    39 1   
    30    13    31 1   
    31    14    15 2   
    32    15    32 1   
    33    17    18 ar  
    34    17    33 1   
    35    18    19 ar  
    36    18    34 1   
    37    19    20 ar  
    38    19    35 1   
    39    22    36 1   
    40    22    37 1   
    41    22    38 1   
@<TRIPOS>SUBSTRUCTURE
     1 RQZ         1 TEMP              0 ****  ****    0 ROOT
