@<TRIPOS>MOLECULE
RQZ
   39    41     1     0     0
SMALL
No Charge or Current Charge


@<TRIPOS>ATOM
      1 C7         -70.2640     4.1360   -49.0710 ca         1 RQZ      -0.168000
      2 C9         -67.5570     1.5270   -49.3660 c          1 RQZ       0.608100
      3 N1         -74.0340     8.7820   -48.7250 nb         1 RQZ      -0.688000
      4 C2         -73.8360     9.2970   -47.4860 ca         1 RQZ       0.382900
      5 N2         -68.4680     2.5700   -49.4830 ns         1 RQZ      -0.150000
      6 C10        -66.6780     1.3160   -50.6070 c3         1 RQZ      -0.166400
      7 C4         -72.6020     6.9720   -48.1240 ca         1 RQZ      -0.136800
      8 N3         -73.4350     6.9230   -50.2120 na         1 RQZ      -0.319400
      9 C6         -71.2520     4.7210   -48.2550 ca         1 RQZ       0.014200
     10 O1         -72.0990     8.8000   -44.3140 o          1 RQZ      -0.605100
     11 N          -73.4440    10.4670   -44.8790 nt         1 RQZ      -0.604000
     12 C1         -73.0080     8.6930   -46.5120 ca         1 RQZ      -0.245600
     13 C16        -72.3600     7.4850   -46.8440 ca         1 RQZ       0.034000
     14 C5         -72.0950     5.7990   -48.7710 cc         1 RQZ      -0.067400
     15 C15        -72.6110     5.7790   -50.0550 cd         1 RQZ      -0.143100
     16 C3         -73.4090     7.6290   -49.0220 ca         1 RQZ       0.380500
     17 C14        -71.4250     4.2450   -46.9430 ca         1 RQZ      -0.126000
     18 C13        -70.6150     3.2090   -46.4520 ca         1 RQZ      -0.083000
     19 C12        -69.6270     2.6360   -47.2710 ca         1 RQZ      -0.129000
     20 C8         -69.4450     3.0950   -48.5930 ca         1 RQZ      -0.016000
     21 O          -67.4590     0.7990   -48.3850 o          1 RQZ      -0.578100
     22 C11        -65.2230     1.7810   -50.3690 c3         1 RQZ      -0.089100
     23 H1         -70.1240     4.5030   -50.0850 ha         1 RQZ       0.104000
     24 H2         -74.3600    10.2300   -47.2840 h4         1 RQZ       0.017100
     25 H3         -68.4250     3.0550   -50.3700 hn         1 RQZ       0.147000
     26 H4         -67.0830     1.8780   -51.4560 hc         1 RQZ       0.070700
     27 H5         -66.6620     0.2460   -50.8460 hc         1 RQZ       0.070700
     28 H6         -73.9600     7.1900   -51.0360 hn         1 RQZ       0.364000
     29 H7         -73.3120    10.8850   -43.9700 hn         1 RQZ       0.313000
     30 H8         -74.0380    10.9100   -45.5620 hn         1 RQZ       0.313000
     31 H9         -71.6960     6.9780   -46.1460 ha         1 RQZ       0.148000
     32 H10        -72.4750     5.0420   -50.8440 h4         1 RQZ       0.219000
     33 H11        -72.1990     4.6640   -46.3050 ha         1 RQZ       0.118000
     34 H12        -70.7550     2.8460   -45.4360 ha         1 RQZ       0.117000
     35 H13        -69.0160     1.8410   -46.8560 ha         1 RQZ       0.148000
     36 H14        -64.6170     1.6180   -51.2670 hc         1 RQZ       0.040700
     37 H15        -65.1930     2.8500   -50.1240 hc         1 RQZ       0.040700
     38 H16        -64.7660     1.2240   -49.5420 hc         1 RQZ       0.040700
     39 C          -72.8110     9.3090   -45.1630 c          1 RQZ       0.625700
@<TRIPOS>BOND
     1     1     9 ar  
     2     1    20 ar  
     3     1    23 1   
     4     2     5 1   
     5     2     6 1   
     6     2    21 2   
     7     3     4 ar  
     8     3    16 ar  
     9     4    12 ar  
    10     4    24 1   
    11     5    20 1   
    12     5    25 1   
    13     6    22 1   
    14     6    26 1   
    15     6    27 1   
    16     7    13 ar  
    17     7    14 1   
    18     7    16 ar  
    19     8    15 1   
    20     8    16 1   
    21     8    28 1   
    22     9    14 1   
    23     9    17 ar  
    24    10    39 2   
    25    11    29 1   
    26    11    30 1   
    27    11    39 1   
    28    12    13 ar  
    29    12    39 1   
    30    13    31 1   
    31    14    15 2   
    32    15    32 1   
    33    17    18 ar  
    34    17    33 1   
    35    18    19 ar  
    36    18    34 1   
    37    19    20 ar  
    38    19    35 1   
    39    22    36 1   
    40    22    37 1   
    41    22    38 1   
@<TRIPOS>SUBSTRUCTURE
     1 RQZ         1 TEMP              0 ****  ****    0 ROOT
