@<TRIPOS>MOLECULE
RR0
   40    44     1     0     0
SMALL
No Charge or Current Charge


@<TRIPOS>ATOM
      1 N1          12.9330    -9.6030     6.0520 nb         1 RR0      -0.643000
      2 C4          14.7770   -11.0380     5.3630 ca         1 RR0      -0.072000
      3 C5          16.9650   -11.4250     4.1160 c          1 RR0       0.625100
      4 C6          17.3330   -12.0350     2.6960 cy         1 RR0      -0.115700
      5 C7          17.1500   -13.5720     3.0080 cy         1 RR0      -0.099900
      6 C8          18.4200   -13.6630     2.0670 cy         1 RR0       0.151300
      7 C10         16.8740   -11.5410     1.3430 ca         1 RR0      -0.144300
      8 C13         16.2300   -10.9290    -1.3090 ca         1 RR0      -0.063000
      9 C15         17.3510   -12.3510     0.3030 ca         1 RR0       0.137100
     10 C17         13.1050   -10.0370     7.3210 ca         1 RR0       0.354900
     11 C12         15.7570   -10.1130    -0.2590 ca         1 RR0       0.089000
     12 C11         16.0790   -10.4140     1.0790 ca         1 RR0      -0.058000
     13 C14         17.0340   -12.0540    -1.0290 ca         1 RR0      -0.132000
     14 O1          18.1420   -13.4370     0.6510 os         1 RR0      -0.333100
     15 C9          18.8660   -12.3730     2.8710 cy         1 RR0      -0.099900
     16 O           17.6590   -10.9210     4.9950 o          1 RR0      -0.562100
     17 N           15.5870   -11.4630     4.2740 ns         1 RR0      -0.162000
     18 C16         13.7530   -10.1030     5.1020 ca         1 RR0       0.299900
     19 C18         14.0800   -10.9880     7.6850 ca         1 RR0      -0.068000
     20 C19         14.1940   -11.4190     9.0220 ca         1 RR0      -0.131000
     21 C           15.1510   -12.3840     9.3650 ca         1 RR0       0.172000
     22 F           15.2570   -12.7990    10.6460 f          1 RR0      -0.178000
     23 C3          14.9360   -11.5140     6.6890 ca         1 RR0      -0.017000
     24 C2          15.8830   -12.5020     7.0480 ca         1 RR0      -0.055000
     25 C1          15.9900   -12.9300     8.3840 ca         1 RR0      -0.129000
     26 H1          16.2380   -14.0400     2.6200 hc         1 RR0       0.077200
     27 H2          17.3090   -13.9190     4.0390 hc         1 RR0       0.077200
     28 H3          19.0500   -14.5500     2.2040 h1         1 RR0       0.109700
     29 H4          15.9760   -10.6860    -2.3380 ha         1 RR0       0.135000
     30 H5          12.4310    -9.6180     8.0680 h4         1 RR0       0.026100
     31 H6          15.7170    -9.7790     1.8830 ha         1 RR0       0.135000
     32 H7          17.4040   -12.6840    -1.8340 ha         1 RR0       0.136000
     33 H8          19.2540   -12.5740     3.8790 hc         1 RR0       0.077200
     34 H9          19.5660   -11.7090     2.3530 hc         1 RR0       0.077200
     35 H10         15.0780   -11.8260     3.4780 hn         1 RR0       0.160000
     36 H11         13.5960    -9.7270     4.0910 h4         1 RR0       0.024100
     37 H12         13.5410   -11.0140     9.7920 ha         1 RR0       0.138000
     38 H13         16.5330   -12.9550     6.3060 ha         1 RR0       0.128000
     39 H14         16.7200   -13.6870     8.6570 ha         1 RR0       0.136000
     40 Cl          14.7610    -8.7110    -0.6230 cl         1 RR0      -0.205000
@<TRIPOS>BOND
     1     1    10 ar  
     2     1    18 ar  
     3     2    17 1   
     4     2    18 ar  
     5     2    23 ar  
     6     3     4 1   
     7     3    16 2   
     8     3    17 1   
     9     4     5 1   
    10     4     7 1   
    11     4    15 1   
    12     5     6 1   
    13     5    26 1   
    14     5    27 1   
    15     6    14 1   
    16     6    15 1   
    17     6    28 1   
    18     7     9 ar  
    19     7    12 ar  
    20     8    11 ar  
    21     8    13 ar  
    22     8    29 1   
    23     9    13 ar  
    24     9    14 1   
    25    10    19 ar  
    26    10    30 1   
    27    11    12 ar  
    28    11    40 1   
    29    12    31 1   
    30    13    32 1   
    31    15    33 1   
    32    15    34 1   
    33    17    35 1   
    34    18    36 1   
    35    19    20 ar  
    36    19    23 ar  
    37    20    21 ar  
    38    20    37 1   
    39    21    22 1   
    40    21    25 ar  
    41    23    24 ar  
    42    24    25 ar  
    43    24    38 1   
    44    25    39 1   
@<TRIPOS>SUBSTRUCTURE
     1 RR0         1 TEMP              0 ****  ****    0 ROOT
