@<TRIPOS>MOLECULE
RR0
   40    44     1     0     0
SMALL
abcg2


@<TRIPOS>ATOM
      1 N1          12.7300   -10.0050     5.8180 nb         1 RR0      -0.643000
      2 C4          14.6290   -11.3970     5.3270 ca         1 RR0      -0.072000
      3 C5          16.7040   -11.7190     4.0560 c          1 RR0       0.625100
      4 C6          17.2550   -12.3670     2.8120 cy         1 RR0      -0.115700
      5 C7          17.0210   -13.8890     2.5260 cy         1 RR0      -0.099900
      6 C8          18.3770   -13.8320     1.7980 cy         1 RR0       0.151300
      7 C10         16.9130   -11.6320     1.5340 ca         1 RR0      -0.144300
      8 C13         16.4390   -10.4780    -0.9680 ca         1 RR0      -0.063000
      9 C15         17.4450   -12.2030     0.3680 ca         1 RR0       0.137100
     10 C17         12.9950   -10.1080     7.1000 ca         1 RR0       0.354900
     11 C12         15.9170    -9.9160     0.1870 ca         1 RR0       0.089000
     12 C11         16.1460   -10.4800     1.4370 ca         1 RR0      -0.058000
     13 C14         17.2110   -11.6320    -0.8750 ca         1 RR0      -0.132000
     14 O1          18.2030   -13.3340     0.4510 os         1 RR0      -0.333100
     15 C9          18.7780   -12.6880     2.7480 cy         1 RR0      -0.099900
     16 O           17.3720   -10.9600     4.7450 o          1 RR0      -0.562100
     17 N           15.4090   -12.0350     4.3290 ns         1 RR0      -0.162000
     18 C16         13.5500   -10.6380     4.9450 ca         1 RR0       0.299900
     19 C18         14.0750   -10.8620     7.6200 ca         1 RR0      -0.068000
     20 C19         14.3100   -10.9580     9.0110 ca         1 RR0      -0.131000
     21 C           15.3460   -11.7320     9.4390 ca         1 RR0       0.172000
     22 F           15.5950   -11.8390    10.7660 f          1 RR0      -0.178000
     23 C3          14.9200   -11.5510     6.7060 ca         1 RR0      -0.017000
     24 C2          15.9690   -12.3540     7.2120 ca         1 RR0      -0.055000
     25 C1          16.1810   -12.4460     8.5630 ca         1 RR0      -0.129000
     26 H1          16.1410   -14.1750     1.9520 hc         1 RR0       0.077200
     27 H2          17.0980   -14.4760     3.4390 hc         1 RR0       0.077200
     28 H3          18.9930   -14.7210     1.7100 h1         1 RR0       0.109700
     29 H4          16.2490   -10.0250    -1.9310 ha         1 RR0       0.135000
     30 H5          12.3410    -9.5840     7.7900 h4         1 RR0       0.026100
     31 H6          15.7250   -10.0200     2.3210 ha         1 RR0       0.135000
     32 H7          17.6290   -12.0880    -1.7620 ha         1 RR0       0.136000
     33 H8          19.1380   -13.0800     3.6970 hc         1 RR0       0.077200
     34 H9          19.4460   -11.9180     2.3680 hc         1 RR0       0.077200
     35 H10         14.9070   -12.5710     3.6360 hn         1 RR0       0.160000
     36 H11         13.3200   -10.5240     3.8910 h4         1 RR0       0.024100
     37 H12         13.6780   -10.4330     9.7150 ha         1 RR0       0.138000
     38 H13         16.6040   -12.9000     6.5300 ha         1 RR0       0.128000
     39 H14         16.9770   -13.0550     8.9700 ha         1 RR0       0.136000
     40 CL          14.9420    -8.4620     0.0760 cl         1 RR0      -0.205000
@<TRIPOS>BOND
     1     1    10 ar  
     2     1    18 ar  
     3     2    17 1   
     4     2    18 ar  
     5     2    23 ar  
     6     3     4 1   
     7     3    16 2   
     8     3    17 1   
     9     4     5 1   
    10     4     7 1   
    11     4    15 1   
    12     5     6 1   
    13     5    26 1   
    14     5    27 1   
    15     6    14 1   
    16     6    15 1   
    17     6    28 1   
    18     7     9 ar  
    19     7    12 ar  
    20     8    11 ar  
    21     8    13 ar  
    22     8    29 1   
    23     9    13 ar  
    24     9    14 1   
    25    10    19 ar  
    26    10    30 1   
    27    11    12 ar  
    28    11    40 1   
    29    12    31 1   
    30    13    32 1   
    31    15    33 1   
    32    15    34 1   
    33    17    35 1   
    34    18    36 1   
    35    19    20 ar  
    36    19    23 ar  
    37    20    21 ar  
    38    20    37 1   
    39    21    22 1   
    40    21    25 ar  
    41    23    24 ar  
    42    24    25 ar  
    43    24    38 1   
    44    25    39 1   
@<TRIPOS>SUBSTRUCTURE
     1 RR0         1 TEMP              0 ****  ****    0 ROOT
