@<TRIPOS>MOLECULE
RR1
   53    56     1     0     0
SMALL
bcc


@<TRIPOS>ATOM
      1 O89          2.7930     0.8010    -2.9850 o          1 RR1      -0.698533
      2 O90          3.9500    -0.4980    -4.7190 o          1 RR1      -0.698533
      3 O92          2.5060    -1.6450    -3.0950 o          1 RR1      -0.698533
      4 S85          2.7790    -0.4030    -3.8330 s6         1 RR1       1.270100
      5 C10          1.3710    -0.1910    -4.9360 ca         1 RR1      -0.204500
      6 C11          1.5800    -0.1770    -6.3070 ca         1 RR1      -0.071000
      7 C12          0.5110    -0.0280    -7.1800 ca         1 RR1      -0.185000
      8 C13         -0.7780     0.1090    -6.6810 ca         1 RR1      -0.131000
      9 C14         -1.0010     0.0930    -5.3150 ca         1 RR1      -0.130000
     10 C4           0.0710    -0.0630    -4.4350 ca         1 RR1       0.211400
     11 C5          -0.5240    -0.0200    -0.3250 ca         1 RR1       0.216100
     12 C3          -1.5260    -0.1320    -1.3000 ca         1 RR1      -0.003600
     13 C9          -2.8900    -0.2210    -0.9100 ca         1 RR1      -0.138500
     14 C8          -3.2190    -0.1980     0.4040 ca         1 RR1      -0.107000
     15 C7          -2.2210    -0.0870     1.4100 ca         1 RR1      -0.002000
     16 C6          -0.8460     0.0030     1.0680 ca         1 RR1      -0.091000
     17 C15          0.1230     0.1110     2.1310 ca         1 RR1       0.165600
     18 C16         -0.3220     0.1310     3.4390 ca         1 RR1      -0.106000
     19 C17         -1.6860     0.0460     3.7400 ca         1 RR1      -0.200500
     20 C18         -2.6270    -0.0640     2.7560 ca         1 RR1      -0.076000
     21 S36         -2.1600     0.1030     5.4680 s6         1 RR1       1.277100
     22 S35         -4.1910    -0.3510    -2.1540 s6         1 RR1       1.280100
     23 N1          -0.1010    -0.0690    -3.0410 ne         1 RR1      -0.298400
     24 N2          -1.2850    -0.1570    -2.6540 nf         1 RR1      -0.121400
     25 N19          1.4650     0.1830     1.8050 nu         1 RR1      -0.715300
     26 C20          2.5860     0.2990     2.5730 ca         1 RR1       0.979900
     27 N21          3.7110     0.3120     1.8580 nb         1 RR1      -0.871000
     28 C22          4.8250     0.4270     2.5820 ca         1 RR1       0.970400
     29 N23          4.8750     0.5290     3.9130 nb         1 RR1      -0.953000
     30 C24          3.6880     0.5050     4.5110 ca         1 RR1       0.970400
     31 N25          2.5060     0.3890     3.8890 nb         1 RR1      -0.871000
     32 NL1          3.6590     0.5880     5.8460 nv         1 RR1      -0.975000
     33 NL2          5.9870     0.4340     1.9220 nv         1 RR1      -0.975000
     34 H11          2.5820    -0.2830    -6.6980 ha         1 RR1       0.138000
     35 H12          0.6860    -0.0140    -8.2470 ha         1 RR1       0.089000
     36 H13         -1.6130     0.2340    -7.3580 ha         1 RR1       0.101000
     37 H14         -2.0000     0.2100    -4.9160 ha         1 RR1       0.179000
     38 HC8         -4.2510    -0.2620     0.7180 ha         1 RR1       0.155000
     39 H16          0.4020     0.2090     4.2340 ha         1 RR1       0.169000
     40 H18         -3.6810    -0.1330     2.9890 ha         1 RR1       0.152000
     41 H28          0.8040     0.0420    -1.6990 ho         1 RR1       0.525000
     42 H19          1.6740     0.1470     0.8170 hn         1 RR1       0.497800
     43 HL11         4.5010     0.8020     6.3510 hn         1 RR1       0.437800
     44 HL12         2.7800     0.7060     6.3180 hn         1 RR1       0.437800
     45 HL21         6.8510     0.5720     2.4160 hn         1 RR1       0.437800
     46 HL22         6.0010     0.4170     0.9180 hn         1 RR1       0.437800
     47 O28          0.7420     0.0690    -0.6950 oh         1 RR1      -0.530100
     48 O37         -1.7120     1.4270     5.9290 o          1 RR1      -0.709867
     49 O38         -3.6230    -0.0620     5.4910 o          1 RR1      -0.709867
     50 O41         -1.4340    -1.0120     6.0970 o          1 RR1      -0.709867
     51 O39         -4.0750     0.8680    -2.9680 o          1 RR1      -0.705200
     52 O40         -3.9200    -1.5980    -2.8810 o          1 RR1      -0.705200
     53 O42         -5.4410    -0.4020    -1.3750 o          1 RR1      -0.705200
@<TRIPOS>BOND
     1     1     4 1   
     2     2     4 1   
     3     3     4 1   
     4     4     5 1   
     5     5     6 ar  
     6     5    10 ar  
     7     6     7 ar  
     8     6    34 1   
     9     7     8 ar  
    10     7    35 1   
    11     8     9 ar  
    12     8    36 1   
    13     9    10 ar  
    14     9    37 1   
    15    10    23 1   
    16    11    12 ar  
    17    11    16 ar  
    18    11    47 1   
    19    12    13 ar  
    20    12    24 1   
    21    13    14 ar  
    22    13    22 1   
    23    14    15 ar  
    24    14    38 1   
    25    15    16 ar  
    26    15    20 ar  
    27    16    17 ar  
    28    17    18 ar  
    29    17    25 1   
    30    18    19 ar  
    31    18    39 1   
    32    19    20 ar  
    33    19    21 1   
    34    20    40 1   
    35    21    48 1   
    36    21    49 1   
    37    21    50 1   
    38    22    51 1   
    39    22    52 1   
    40    22    53 1   
    41    23    24 2   
    42    25    26 1   
    43    25    42 1   
    44    26    27 ar  
    45    26    31 ar  
    46    27    28 ar  
    47    28    29 ar  
    48    28    33 1   
    49    29    30 ar  
    50    30    31 ar  
    51    30    32 1   
    52    32    43 1   
    53    32    44 1   
    54    33    45 1   
    55    33    46 1   
    56    41    47 1   
@<TRIPOS>SUBSTRUCTURE
     1 RR1         1 TEMP              0 ****  ****    0 ROOT
