@<TRIPOS>MOLECULE
RR1
   53    56     1     0     0
SMALL
No Charge or Current Charge


@<TRIPOS>ATOM
      1 O89          2.3050     2.0590    -3.4650 o          1 RR1      -0.698533
      2 O90          3.7330     0.3730    -4.6150 o          1 RR1      -0.698533
      3 O92          2.2240    -0.3240    -2.7570 o          1 RR1      -0.698533
      4 S85          2.5270     0.6480    -3.8180 s6         1 RR1       1.270100
      5 C10          1.1550     0.3430    -5.0210 ca         1 RR1      -0.204500
      6 C11          1.4400     0.1870    -6.4000 ca         1 RR1      -0.053000
      7 C12          0.4080    -0.0340    -7.3260 ca         1 RR1      -0.167000
      8 C13         -0.9220    -0.0960    -6.8920 ca         1 RR1      -0.113000
      9 C14         -1.2150     0.0640    -5.5290 ca         1 RR1      -0.112000
     10 C4          -0.1910     0.2790    -4.5840 ca         1 RR1       0.211400
     11 C5          -0.3490    -0.5080    -0.2060 ca         1 RR1       0.216100
     12 C3          -1.3060    -0.4450    -1.2580 ca         1 RR1      -0.003600
     13 C9          -2.6850    -0.2590    -0.9670 ca         1 RR1      -0.138500
     14 C8          -3.0660    -0.0950     0.3790 ca         1 RR1      -0.089000
     15 C7          -2.1290    -0.1360     1.4220 ca         1 RR1      -0.002000
     16 C6          -0.7520    -0.3430     1.1600 ca         1 RR1      -0.091000
     17 C15          0.1480    -0.3650     2.2760 ca         1 RR1       0.304000
     18 C16         -0.3620    -0.2410     3.5860 ca         1 RR1      -0.088000
     19 C17         -1.7340    -0.0500     3.8330 ca         1 RR1      -0.200500
     20 C18         -2.6070     0.0180     2.7370 ca         1 RR1      -0.058000
     21 S36         -2.3670     0.1290     5.5710 s6         1 RR1       1.277100
     22 S35         -4.0130    -0.2420    -2.2960 s6         1 RR1       1.280100
     23 N1          -0.5650     0.4480    -3.2310 ne         1 RR1      -0.298400
     24 N2          -0.8810    -0.6100    -2.6060 nf         1 RR1      -0.121400
     25 N19          1.5270    -0.5470     2.0990 nu         1 RR1      -0.908900
     26 C20          2.6760    -0.1750     2.7710 ca         1 RR1       0.453900
     27 N21          3.8130    -0.6400     2.2350 nb         1 RR1      -0.345000
     28 C22          4.9140    -0.2570     2.8890 ca         1 RR1       0.444400
     29 N23          4.9720     0.5180     3.9720 nb         1 RR1      -0.427000
     30 C24          3.7720     0.9150     4.3990 ca         1 RR1       0.444400
     31 N25          2.5900     0.6160     3.8540 nb         1 RR1      -0.345000
     32 NL1          3.7630     1.7060     5.4860 nv         1 RR1      -1.085400
     33 NL2          6.0930    -0.6860     2.4050 nv         1 RR1      -1.085400
     34 H11          2.4640     0.2390    -6.7640 ha         1 RR1       0.120000
     35 H12          0.6410    -0.1530    -8.3810 ha         1 RR1       0.071000
     36 H13         -1.7240    -0.2630    -7.6070 ha         1 RR1       0.083000
     37 H14         -2.2490     0.0210    -5.1950 ha         1 RR1       0.161000
     38 HC8         -4.1130     0.0600     0.6270 ha         1 RR1       0.137000
     39 H16          0.3100    -0.3080     4.4340 ha         1 RR1       0.151000
     40 H18         -3.6700     0.1760     2.9080 ha         1 RR1       0.134000
     41 H28          1.1380    -0.5930    -1.4930 ho         1 RR1       0.564000
     42 H19          1.7380    -0.8460     1.1430 hn         1 RR1       0.553000
     43 HL11         4.6410     2.1390     5.7590 hn         1 RR1       0.493000
     44 HL12         2.9150     2.2270     5.6910 hn         1 RR1       0.493000
     45 HL21         6.9330    -0.2150     2.7290 hn         1 RR1       0.493000
     46 HL22         6.1150    -1.0560     1.4580 hn         1 RR1       0.493000
     47 O28          0.9630    -0.7760    -0.5220 oh         1 RR1      -0.569100
     48 O37         -2.1920     1.5730     5.7920 o          1 RR1      -0.709867
     49 O38         -3.7590    -0.3330     5.4490 o          1 RR1      -0.709867
     50 O41         -1.4550    -0.7440     6.3260 o          1 RR1      -0.709867
     51 O39         -3.7530     1.0360    -2.9790 o          1 RR1      -0.705200
     52 O40         -3.7100    -1.4520    -3.0770 o          1 RR1      -0.705200
     53 O42         -5.2610    -0.2920    -1.5160 o          1 RR1      -0.705200
@<TRIPOS>BOND
     1     1     4 1   
     2     2     4 1   
     3     3     4 1   
     4     4     5 1   
     5     5     6 ar  
     6     5    10 ar  
     7     6     7 ar  
     8     6    34 1   
     9     7     8 ar  
    10     7    35 1   
    11     8     9 ar  
    12     8    36 1   
    13     9    10 ar  
    14     9    37 1   
    15    10    23 1   
    16    11    12 ar  
    17    11    16 ar  
    18    11    47 1   
    19    12    13 ar  
    20    12    24 1   
    21    13    14 ar  
    22    13    22 1   
    23    14    15 ar  
    24    14    38 1   
    25    15    16 ar  
    26    15    20 ar  
    27    16    17 ar  
    28    17    18 ar  
    29    17    25 1   
    30    18    19 ar  
    31    18    39 1   
    32    19    20 ar  
    33    19    21 1   
    34    20    40 1   
    35    21    48 1   
    36    21    49 1   
    37    21    50 1   
    38    22    51 1   
    39    22    52 1   
    40    22    53 1   
    41    23    24 2   
    42    25    26 1   
    43    25    42 1   
    44    26    27 ar  
    45    26    31 ar  
    46    27    28 ar  
    47    28    29 ar  
    48    28    33 1   
    49    29    30 ar  
    50    30    31 ar  
    51    30    32 1   
    52    32    43 1   
    53    32    44 1   
    54    33    45 1   
    55    33    46 1   
    56    41    47 1   
@<TRIPOS>SUBSTRUCTURE
     1 RR1         1 TEMP              0 ****  ****    0 ROOT
