@<TRIPOS>MOLECULE
RR3
   38    40     1     0     0
SMALL
abcg2


@<TRIPOS>ATOM
      1 C18        -46.0440   -33.2950     0.5250 ca         1 RR3      -0.086300
      2 C16        -44.6710   -32.4120     2.2990 ca         1 RR3      -0.102500
      3 C17        -45.7440   -33.1890     1.8790 ca         1 RR3      -0.094000
      4 C15        -43.8900   -31.7210     1.3750 ca         1 RR3      -0.077300
      5 C14        -42.7950   -30.8160     1.8590 c3         1 RR3      -0.270100
      6 C20        -48.3400   -33.2760    -0.3700 c1         1 RR3       0.299900
      7 C19        -47.2310   -34.1200     0.0660 c3         1 RR3       0.031000
      8 C01        -47.7800   -29.8030     1.2020 c3         1 RR3       0.069900
      9 C04        -48.3120   -30.9970     4.4870 cc         1 RR3       0.246200
     10 C05        -46.9960   -30.5190     4.6980 ca         1 RR3      -0.027300
     11 C07        -44.9760   -30.0660     5.5510 ca         1 RR3       0.122900
     12 C09        -45.3020   -29.4680     3.3490 ca         1 RR3       0.384900
     13 C22        -45.2470   -32.6270    -0.4040 ca         1 RR3      -0.094000
     14 C23        -44.1800   -31.8480     0.0150 ca         1 RR3      -0.102500
     15 C24        -46.6150   -29.9680     3.4570 ca         1 RR3      -0.172200
     16 N02        -47.6660   -30.1420     2.6100 na         1 RR3       0.093600
     17 N03        -48.6850   -30.7650     3.2380 nd         1 RR3      -0.491100
     18 N06        -46.1740   -30.5660     5.7690 nb         1 RR3      -0.120000
     19 N08        -44.5100   -29.5280     4.4010 nb         1 RR3      -0.226000
     20 N10        -44.8070   -28.9410     2.1630 nu         1 RR3      -0.854000
     21 N21        -49.2010   -32.5960    -0.7150 n1         1 RR3      -0.458000
     22 O12        -42.3570   -28.2870     2.5160 o          1 RR3      -0.515500
     23 O13        -43.2840   -28.7380     0.2590 o          1 RR3      -0.515500
     24 S11        -43.2100   -29.0670     1.6620 s6         1 RR3       1.213100
     25 H161       -44.4480   -32.3370     3.3550 ha         1 RR3       0.130000
     26 H171       -46.3510   -33.7070     2.6100 ha         1 RR3       0.125000
     27 H141       -42.5830   -30.9530     2.9160 h1         1 RR3       0.115700
     28 H142       -41.8690   -30.9100     1.2890 h1         1 RR3       0.115700
     29 H191       -47.5910   -34.7600     0.8730 hc         1 RR3       0.081200
     30 H192       -46.9570   -34.7680    -0.7690 hc         1 RR3       0.081200
     31 H013       -48.7750   -30.0910     0.8770 h1         1 RR3       0.067033
     32 H011       -47.6520   -28.7290     1.0600 h1         1 RR3       0.067033
     33 H012       -47.0430   -30.3540     0.6170 h1         1 RR3       0.067033
     34 H041       -48.9760   -31.4900     5.1790 h4         1 RR3       0.069800
     35 H071       -44.2700   -30.0850     6.3730 h5         1 RR3       0.061100
     36 H221       -45.4660   -32.7140    -1.4620 ha         1 RR3       0.125000
     37 H231       -43.5750   -31.3270    -0.7140 ha         1 RR3       0.130000
     38 H101       -45.4290   -28.9390     1.3660 hn         1 RR3       0.508000
@<TRIPOS>BOND
     1     1     3 ar  
     2     1     7 1   
     3     1    13 ar  
     4     2     3 ar  
     5     2     4 ar  
     6     2    25 1   
     7     3    26 1   
     8     4     5 1   
     9     4    14 ar  
    10     5    24 1   
    11     5    27 1   
    12     5    28 1   
    13     6     7 1   
    14     6    21 3   
    15     7    29 1   
    16     7    30 1   
    17     8    16 1   
    18     8    31 1   
    19     8    32 1   
    20     8    33 1   
    21     9    10 1   
    22     9    17 2   
    23     9    34 1   
    24    10    15 ar  
    25    10    18 ar  
    26    11    18 ar  
    27    11    19 ar  
    28    11    35 1   
    29    12    15 ar  
    30    12    19 ar  
    31    12    20 1   
    32    13    14 ar  
    33    13    36 1   
    34    14    37 1   
    35    15    16 1   
    36    16    17 1   
    37    20    24 1   
    38    20    38 1   
    39    22    24 2   
    40    23    24 2   
@<TRIPOS>SUBSTRUCTURE
     1 RR3         1 TEMP              0 ****  ****    0 ROOT
