@<TRIPOS>MOLECULE
RR3
   38    40     1     0     0
SMALL
No Charge or Current Charge


@<TRIPOS>ATOM
      1 C18        -46.0970   -33.3370     0.3860 ca         1 RR3      -0.086300
      2 C16        -44.7770   -32.4260     2.2240 ca         1 RR3      -0.102500
      3 C17        -45.8380   -33.2240     1.7650 ca         1 RR3      -0.094000
      4 C15        -43.9690   -31.7220     1.3120 ca         1 RR3      -0.077300
      5 C14        -42.8510   -30.8170     1.8230 c3         1 RR3      -0.270100
      6 C20        -48.4720   -33.3860    -0.2960 c1         1 RR3       0.299900
      7 C19        -47.2580   -34.1910    -0.1130 c3         1 RR3       0.031000
      8 C01        -47.5950   -29.9050     1.2320 c3         1 RR3       0.069900
      9 C04        -48.2690   -30.9880     4.5530 cc         1 RR3       0.246200
     10 C05        -46.9600   -30.4240     4.7600 ca         1 RR3      -0.027300
     11 C07        -45.0090   -29.7760     5.7070 ca         1 RR3       0.122900
     12 C09        -45.2740   -29.3680     3.4380 ca         1 RR3       0.384900
     13 C22        -45.2740   -32.6490    -0.5280 ca         1 RR3      -0.094000
     14 C23        -44.2160   -31.8470    -0.0670 ca         1 RR3      -0.102500
     15 C24        -46.5520   -29.9520     3.5500 ca         1 RR3      -0.172200
     16 N02        -47.5850   -30.2340     2.6660 na         1 RR3       0.093600
     17 N03        -48.6620   -30.8770     3.2750 nd         1 RR3      -0.491100
     18 N06        -46.2200   -30.3600     5.8800 nb         1 RR3      -0.120000
     19 N08        -44.5010   -29.2800     4.5460 nb         1 RR3      -0.226000
     20 N10        -44.7600   -28.8830     2.2470 nu         1 RR3      -0.854000
     21 N21        -49.4350   -32.7530    -0.4710 n1         1 RR3      -0.458000
     22 O12        -42.3420   -28.3140     2.6370 o          1 RR3      -0.515500
     23 O13        -43.2620   -28.6720     0.2960 o          1 RR3      -0.515500
     24 S11        -43.2000   -29.0530     1.7080 s6         1 RR3       1.213100
     25 H161       -44.5960   -32.3440     3.2940 ha         1 RR3       0.130000
     26 H171       -46.4640   -33.7480     2.4850 ha         1 RR3       0.125000
     27 H141       -42.6570   -31.0050     2.8840 h1         1 RR3       0.115700
     28 H142       -41.9250   -30.9770     1.2610 h1         1 RR3       0.115700
     29 H191       -47.4790   -35.0010     0.5910 hc         1 RR3       0.081200
     30 H192       -47.0080   -34.6670    -1.0680 hc         1 RR3       0.081200
     31 H013       -48.5590   -30.1910     0.7960 h1         1 RR3       0.067033
     32 H011       -47.4540   -28.8260     1.0980 h1         1 RR3       0.067033
     33 H012       -46.7990   -30.4590     0.7200 h1         1 RR3       0.067033
     34 H041       -48.9480   -31.4670     5.2470 h4         1 RR3       0.069800
     35 H071       -44.3750   -29.7000     6.5880 h5         1 RR3       0.061100
     36 H221       -45.4580   -32.7290    -1.5980 ha         1 RR3       0.125000
     37 H231       -43.5950   -31.3160    -0.7850 ha         1 RR3       0.130000
     38 H101       -45.3070   -29.0510     1.4210 hn         1 RR3       0.508000
@<TRIPOS>BOND
     1     1     3 ar  
     2     1     7 1   
     3     1    13 ar  
     4     2     3 ar  
     5     2     4 ar  
     6     2    25 1   
     7     3    26 1   
     8     4     5 1   
     9     4    14 ar  
    10     5    24 1   
    11     5    27 1   
    12     5    28 1   
    13     6     7 1   
    14     6    21 3   
    15     7    29 1   
    16     7    30 1   
    17     8    16 1   
    18     8    31 1   
    19     8    32 1   
    20     8    33 1   
    21     9    10 1   
    22     9    17 2   
    23     9    34 1   
    24    10    15 ar  
    25    10    18 ar  
    26    11    18 ar  
    27    11    19 ar  
    28    11    35 1   
    29    12    15 ar  
    30    12    19 ar  
    31    12    20 1   
    32    13    14 ar  
    33    13    36 1   
    34    14    37 1   
    35    15    16 1   
    36    16    17 1   
    37    20    24 1   
    38    20    38 1   
    39    22    24 2   
    40    23    24 2   
@<TRIPOS>SUBSTRUCTURE
     1 RR3         1 TEMP              0 ****  ****    0 ROOT
