@<TRIPOS>MOLECULE
RR5
   52    54     1     0     0
SMALL
No Charge or Current Charge


@<TRIPOS>ATOM
      1 CAR         -7.6220    -5.9660    -7.6460 ca         1 RR5      -0.002500
      2 CAS         -8.0140    -6.5090    -8.8820 ca         1 RR5       0.097500
      3 Cl1         -9.4630    -7.4990    -8.9860 cl         1 RR5      -0.180000
      4 CAT         -7.2570    -6.2520   -10.0380 ca         1 RR5      -0.066000
      5 CAU         -6.1050    -5.4520    -9.9570 ca         1 RR5       0.097500
      6 Cl2         -5.1630    -5.1270   -11.4070 cl         1 RR5      -0.180000
      7 CAV         -5.7040    -4.9080    -8.7250 ca         1 RR5      -0.002500
      8 CAL         -6.4650    -5.1630    -7.5630 ca         1 RR5      -0.257500
      9 SAI         -5.9730    -4.4760    -5.9770 sy         1 RR5       1.172600
     10 OAJ         -4.6400    -3.8720    -6.0690 o          1 RR5      -0.550500
     11 OAK         -6.2980    -5.4870    -4.9650 o          1 RR5      -0.550500
     12 N           -7.1050    -3.2190    -5.7460 n3         1 RR5      -0.751500
     13 CAC         -7.2440    -2.1930    -6.8380 c6         1 RR5       0.234500
     14 CAB         -6.2140    -1.0430    -6.6590 c6         1 RR5      -0.099400
     15 CAA         -6.3430    -0.3850    -5.2680 c6         1 RR5      -0.071400
     16 CB          -6.2210    -1.4580    -4.1680 c6         1 RR5      -0.087400
     17 CA          -7.1940    -2.6680    -4.3390 c6         1 RR5       0.143500
     18 C           -8.6380    -2.3520    -3.8170 c          1 RR5       0.571000
     19 O           -9.0400    -2.8290    -2.7590 o          1 RR5      -0.610000
     20 NAM         -9.4890    -1.5780    -4.6300 n          1 RR5      -0.342800
     21 CAP        -10.6240    -0.8280    -3.9890 c3         1 RR5      -0.057300
     22 CAY        -11.1350     0.3610    -4.8420 c3         1 RR5      -0.072100
     23 CAQ        -11.8160    -1.7110    -3.4990 c          1 RR5       0.715000
     24 OBA        -12.3170    -2.5160    -4.2730 o          1 RR5      -0.722500
     25 OAZ        -12.2040    -1.5630    -2.3480 o          1 RR5      -0.722500
     26 CAN         -9.7220    -2.1150    -5.9920 c3         1 RR5       0.129000
     27 CAH         -8.6990    -1.6100    -7.0250 c3         1 RR5      -0.084700
     28 CBB         -9.2380    -1.7330    -8.4790 c3         1 RR5      -0.069400
     29 CBC         -9.4850    -3.1710    -8.9810 c3         1 RR5      -0.094100
     30 H1          -8.2230    -6.1660    -6.7600 ha         1 RR5       0.172500
     31 H2          -7.5640    -6.6690   -10.9930 ha         1 RR5       0.136000
     32 H3          -4.8080    -4.2900    -8.6810 ha         1 RR5       0.172500
     33 H4          -6.9940    -2.6620    -7.7980 h1         1 RR5       0.050700
     34 H5          -5.1950    -1.4270    -6.7910 hc         1 RR5       0.048700
     35 H6          -6.3500    -0.2890    -7.4460 hc         1 RR5       0.048700
     36 H7          -5.5560     0.3710    -5.1400 hc         1 RR5       0.042200
     37 H8          -7.2980     0.1490    -5.1710 hc         1 RR5       0.042200
     38 H9          -5.1900    -1.8340    -4.1580 hc         1 RR5       0.054700
     39 H10         -6.3760    -0.9970    -3.1830 hc         1 RR5       0.054700
     40 H11         -6.8610    -3.4340    -3.6240 h1         1 RR5       0.106700
     41 H12        -10.2070    -0.3810    -3.0770 h1         1 RR5       0.075700
     42 H13        -11.8150     0.9850    -4.2500 hc         1 RR5       0.020700
     43 H14        -10.2970     0.9890    -5.1670 hc         1 RR5       0.020700
     44 H15        -11.6810     0.0230    -5.7290 hc         1 RR5       0.020700
     45 H17        -10.7280    -1.8390    -6.3300 h1         1 RR5       0.059700
     46 H18         -9.7060    -3.2130    -5.9590 h1         1 RR5       0.059700
     47 H19         -8.6610    -0.5270    -6.8640 hc         1 RR5       0.056700
     48 H20         -8.5370    -1.2380    -9.1630 hc         1 RR5       0.033700
     49 H21        -10.1800    -1.1740    -8.5550 hc         1 RR5       0.033700
     50 H22         -9.9570    -3.1490    -9.9710 hc         1 RR5       0.034033
     51 H23         -8.5410    -3.7150    -9.0770 hc         1 RR5       0.034033
     52 H24        -10.1450    -3.7250    -8.3040 hc         1 RR5       0.034033
@<TRIPOS>BOND
     1     1     2 ar  
     2     1     8 ar  
     3     1    30 1   
     4     2     3 1   
     5     2     4 ar  
     6     4     5 ar  
     7     4    31 1   
     8     5     6 1   
     9     5     7 ar  
    10     7     8 ar  
    11     7    32 1   
    12     8     9 1   
    13     9    10 2   
    14     9    11 2   
    15     9    12 1   
    16    12    13 1   
    17    12    17 1   
    18    13    14 1   
    19    13    27 1   
    20    13    33 1   
    21    14    15 1   
    22    14    34 1   
    23    14    35 1   
    24    15    16 1   
    25    15    36 1   
    26    15    37 1   
    27    16    17 1   
    28    16    38 1   
    29    16    39 1   
    30    17    18 1   
    31    17    40 1   
    32    18    19 2   
    33    18    20 1   
    34    20    21 1   
    35    20    26 1   
    36    21    22 1   
    37    21    23 1   
    38    21    41 1   
    39    22    42 1   
    40    22    43 1   
    41    22    44 1   
    42    23    24 1   
    43    23    25 1   
    44    26    27 1   
    45    26    45 1   
    46    26    46 1   
    47    27    28 1   
    48    27    47 1   
    49    28    29 1   
    50    28    48 1   
    51    28    49 1   
    52    29    50 1   
    53    29    51 1   
    54    29    52 1   
@<TRIPOS>SUBSTRUCTURE
     1 RR5         1 TEMP              0 ****  ****    0 ROOT
