@<TRIPOS>MOLECULE
RR5
   52    54     1     0     0
SMALL
abcg2


@<TRIPOS>ATOM
      1 CAR         -8.2600    -5.4830    -7.0210 ca         1 RR5      -0.002500
      2 CAS         -9.0030    -6.0690    -8.0300 ca         1 RR5       0.097500
      3 CL1        -10.6130    -6.5920    -7.7030 cl         1 RR5      -0.180000
      4 CAT         -8.4880    -6.2410    -9.3080 ca         1 RR5      -0.066000
      5 CAU         -7.1980    -5.8120    -9.5670 ca         1 RR5       0.097500
      6 CL2         -6.5490    -6.0080   -11.1520 cl         1 RR5      -0.180000
      7 CAV         -6.4200    -5.2170    -8.5850 ca         1 RR5      -0.002500
      8 CAL         -6.9750    -5.0560    -7.3280 ca         1 RR5      -0.257500
      9 SAI         -6.0140    -4.2850    -6.0420 sy         1 RR5       1.172600
     10 OAJ         -4.6940    -4.0210    -6.5940 o          1 RR5      -0.550500
     11 OAK         -6.1170    -5.1060    -4.8450 o          1 RR5      -0.550500
     12 N           -6.8680    -2.9040    -5.7690 n3         1 RR5      -0.751500
     13 CAC         -6.8710    -1.8820    -6.8230 c6         1 RR5       0.234500
     14 CAB         -5.8290    -0.8000    -6.5520 c6         1 RR5      -0.099400
     15 CAA         -5.9630    -0.2270    -5.1450 c6         1 RR5      -0.071400
     16 CB          -5.9520    -1.3370    -4.1060 c6         1 RR5      -0.087400
     17 CA          -6.9990    -2.4140    -4.4040 c6         1 RR5       0.143500
     18 C           -8.4170    -1.9930    -4.0020 c          1 RR5       0.571000
     19 O           -8.5530    -1.7070    -2.8150 o          1 RR5      -0.610000
     20 NAM         -9.4450    -2.0190    -4.8660 n          1 RR5      -0.342800
     21 CAP        -10.8060    -1.9260    -4.3400 c3         1 RR5      -0.057300
     22 CAY        -11.4820    -0.6190    -4.7340 c3         1 RR5      -0.072100
     23 CAQ        -11.6130    -3.2120    -4.6820 c          1 RR5       0.715000
     24 OBA        -10.9650    -4.2740    -4.7450 o          1 RR5      -0.722500
     25 OAZ        -12.8430    -3.0720    -4.8010 o          1 RR5      -0.722500
     26 CAN         -9.3530    -2.1640    -6.3140 c3         1 RR5       0.129000
     27 CAH         -8.2920    -1.2950    -6.9710 c3         1 RR5      -0.084700
     28 CBB         -8.6230    -1.0330    -8.4470 c3         1 RR5      -0.069400
     29 CBC         -8.8780    -2.2770    -9.2920 c3         1 RR5      -0.094100
     30 H1          -8.6850    -5.3390    -6.0360 ha         1 RR5       0.172500
     31 H2          -9.0860    -6.6960   -10.0860 ha         1 RR5       0.136000
     32 H3          -5.4180    -4.8770    -8.8050 ha         1 RR5       0.172500
     33 H4          -6.6120    -2.3780    -7.7620 h1         1 RR5       0.050700
     34 H5          -4.8290    -1.2210    -6.6840 hc         1 RR5       0.048700
     35 H6          -5.9410    -0.0120    -7.3010 hc         1 RR5       0.048700
     36 H7          -5.1440     0.4690    -4.9510 hc         1 RR5       0.042200
     37 H8          -6.8830     0.3590    -5.0570 hc         1 RR5       0.042200
     38 H9          -4.9730    -1.8240    -4.1010 hc         1 RR5       0.054700
     39 H10         -6.1110    -0.9420    -3.1030 hc         1 RR5       0.054700
     40 H11         -6.8120    -3.2550    -3.7340 h1         1 RR5       0.106700
     41 H12        -10.7140    -1.9210    -3.2520 h1         1 RR5       0.075700
     42 H13        -12.4440    -0.5300    -4.2330 hc         1 RR5       0.020700
     43 H14        -10.8710     0.2340    -4.4360 hc         1 RR5       0.020700
     44 H15        -11.6690    -0.5420    -5.8060 hc         1 RR5       0.020700
     45 H17        -10.3200    -1.8550    -6.7120 h1         1 RR5       0.059700
     46 H18         -9.2390    -3.2080    -6.5990 h1         1 RR5       0.059700
     47 H19         -8.3220    -0.3210    -6.4730 hc         1 RR5       0.056700
     48 H20         -7.8070    -0.4540    -8.8880 hc         1 RR5       0.033700
     49 H21         -9.5040    -0.3870    -8.4890 hc         1 RR5       0.033700
     50 H22         -9.0370    -2.0000   -10.3340 hc         1 RR5       0.034033
     51 H23         -8.0380    -2.9720    -9.2690 hc         1 RR5       0.034033
     52 H24         -9.7640    -2.8200    -8.9620 hc         1 RR5       0.034033
@<TRIPOS>BOND
     1     1     2 ar  
     2     1     8 ar  
     3     1    30 1   
     4     2     3 1   
     5     2     4 ar  
     6     4     5 ar  
     7     4    31 1   
     8     5     6 1   
     9     5     7 ar  
    10     7     8 ar  
    11     7    32 1   
    12     8     9 1   
    13     9    10 2   
    14     9    11 2   
    15     9    12 1   
    16    12    13 1   
    17    12    17 1   
    18    13    14 1   
    19    13    27 1   
    20    13    33 1   
    21    14    15 1   
    22    14    34 1   
    23    14    35 1   
    24    15    16 1   
    25    15    36 1   
    26    15    37 1   
    27    16    17 1   
    28    16    38 1   
    29    16    39 1   
    30    17    18 1   
    31    17    40 1   
    32    18    19 2   
    33    18    20 1   
    34    20    21 1   
    35    20    26 1   
    36    21    22 1   
    37    21    23 1   
    38    21    41 1   
    39    22    42 1   
    40    22    43 1   
    41    22    44 1   
    42    23    24 1   
    43    23    25 1   
    44    26    27 1   
    45    26    45 1   
    46    26    46 1   
    47    27    28 1   
    48    27    47 1   
    49    28    29 1   
    50    28    48 1   
    51    28    49 1   
    52    29    50 1   
    53    29    51 1   
    54    29    52 1   
@<TRIPOS>SUBSTRUCTURE
     1 RR5         1 TEMP              0 ****  ****    0 ROOT
