@<TRIPOS>MOLECULE
RR6
   91    97     1     0     0
SMALL
abcg2


@<TRIPOS>ATOM
      1 C60          2.9220    -1.3720    12.3670 ca         1 RR6       0.150100
      2 C61          3.1570    -1.3530    13.7420 ca         1 RR6      -0.213500
      3 C62          2.2790    -0.7090    14.5880 ca         1 RR6      -0.009000
      4 C63          1.1460    -0.0710    14.0790 ca         1 RR6      -0.268500
      5 C64          0.9030    -0.0780    12.7220 ca         1 RR6       0.047500
      6 C54          1.7900    -0.7240    11.8560 ca         1 RR6       0.020900
      7 O79          3.7950    -2.0280    11.5930 oh         1 RR6      -0.570100
      8 O82          0.8610     1.5230    16.1080 o          1 RR6      -0.704200
      9 O83         -0.6580    -0.3980    15.9100 o          1 RR6      -0.704200
     10 O84         -0.8980     1.5210    14.3840 o          1 RR6      -0.704200
     11 S81          0.0110     0.7160    15.2150 s6         1 RR6       1.270600
     12 C55          1.2510    -0.5210     7.7260 ca         1 RR6       0.181600
     13 C53          0.2790    -0.3230     8.7050 ca         1 RR6       0.001900
     14 C59         -1.0390     0.0100     8.2880 ca         1 RR6      -0.142500
     15 C58         -1.3730     0.1000     6.9740 ca         1 RR6      -0.058000
     16 C57         -0.4060    -0.1240     5.9460 ca         1 RR6       0.109000
     17 C56          0.9220    -0.4130     6.3480 ca         1 RR6      -0.129000
     18 C65          1.9150    -0.6000     5.3690 ca         1 RR6      -0.055000
     19 C66          1.6250    -0.5050     4.0450 ca         1 RR6      -0.191000
     20 C67          0.3060    -0.2330     3.6030 ca         1 RR6       0.403000
     21 C68         -0.7080    -0.0570     4.5550 ca         1 RR6      -0.283000
     22 S86         -2.4460     0.2270     4.1120 s6         1 RR6       1.253100
     23 S85         -2.3100     0.3350     9.5310 s6         1 RR6       1.265600
     24 N51          0.5000    -0.3950    10.0610 ne         1 RR6      -0.088400
     25 N52          1.6320    -0.7380    10.4650 nf         1 RR6      -0.372900
     26 C10          3.2530    -0.4210   -12.3480 ca         1 RR6       0.150100
     27 C11          3.4340    -0.5980   -13.7200 ca         1 RR6      -0.213500
     28 C12          2.3440    -0.6790   -14.5600 ca         1 RR6      -0.009000
     29 C13          1.0490    -0.5780   -14.0480 ca         1 RR6      -0.268500
     30 C14          0.8550    -0.4050   -12.6940 ca         1 RR6       0.047500
     31 C4           1.9530    -0.3320   -11.8310 ca         1 RR6       0.020900
     32 O32          0.0440    -0.0910   -16.3960 o          1 RR6      -0.704200
     33 O33         -1.4870    -0.1340   -14.4650 o          1 RR6      -0.704200
     34 O34         -0.5050    -2.2260   -15.3100 o          1 RR6      -0.704200
     35 C5           1.3930    -0.1490    -7.6950 ca         1 RR6       0.181600
     36 C3           0.4380     0.0820    -8.6820 ca         1 RR6       0.001900
     37 C9          -0.8930     0.3730    -8.2760 ca         1 RR6      -0.142500
     38 C8          -1.2490     0.4100    -6.9650 ca         1 RR6      -0.058000
     39 C7          -0.2980     0.1550    -5.9290 ca         1 RR6       0.109000
     40 C6           1.0390    -0.1070    -6.3200 ca         1 RR6      -0.129000
     41 C15          2.0170    -0.3310    -5.3330 ca         1 RR6      -0.055000
     42 C16          1.7020    -0.2980    -4.0110 ca         1 RR6      -0.191000
     43 C17          0.3730    -0.0550    -3.5820 ca         1 RR6       0.403000
     44 C18         -0.6240     0.1590    -4.5420 ca         1 RR6      -0.283000
     45 S36         -2.3720     0.4150    -4.1170 s6         1 RR6       1.253100
     46 O39         -1.6300     1.9040   -10.2530 o          1 RR6      -0.691867
     47 O40         -2.2660    -0.4880   -10.3350 o          1 RR6      -0.691867
     48 O42         -3.3700     1.0280    -8.7610 o          1 RR6      -0.691867
     49 N1           1.8310    -0.2020   -10.4410 ne         1 RR6      -0.372900
     50 N2           0.6690     0.0150   -10.0360 nf         1 RR6      -0.088400
     51 N26          0.0080    -0.1550     2.2570 nu         1 RR6      -0.942400
     52 C20          0.7960    -0.1430    -1.1130 ca         1 RR6       0.431400
     53 N21          0.0840    -0.1060     0.0090 nb         1 RR6      -0.283000
     54 C22          0.7740    -0.1990     1.1420 ca         1 RR6       0.431400
     55 N23          2.1050    -0.3200     1.2040 nb         1 RR6      -0.334000
     56 C24          2.7020    -0.3430     0.0290 ca         1 RR6       0.175900
     57 N25          2.1270    -0.2610    -1.1550 nb         1 RR6      -0.334000
     58 H61          4.0340    -1.8510    14.1360 ha         1 RR6       0.081500
     59 H62          2.4860    -0.6990    15.6500 ha         1 RR6       0.100500
     60 H64          0.0380     0.4220    12.3040 ha         1 RR6       0.200500
     61 H79          3.4850    -2.0500    10.6800 ho         1 RR6       0.476500
     62 H58         -2.3860     0.3680     6.7340 ha         1 RR6       0.184000
     63 H65          2.9310    -0.8230     5.6620 ha         1 RR6       0.093000
     64 H66          2.4030    -0.6400     3.3140 ha         1 RR6       0.131000
     65 H78          2.5720    -0.8310     9.0180 ho         1 RR6       0.498500
     66 H11          4.4390    -0.6660   -14.1160 ha         1 RR6       0.081500
     67 H12          2.5030    -0.8100   -15.6220 ha         1 RR6       0.100500
     68 H14         -0.1430    -0.3260   -12.2770 ha         1 RR6       0.200500
     69 H29          4.1090    -0.1420   -10.6700 ho         1 RR6       0.476500
     70 H8          -2.2700     0.6570    -6.7330 ha         1 RR6       0.184000
     71 H15          3.0400    -0.5310    -5.6170 ha         1 RR6       0.093000
     72 H16          2.4690    -0.4610    -3.2740 ha         1 RR6       0.131000
     73 H28          2.7290    -0.4370    -8.9770 ho         1 RR6       0.498500
     74 H19         -0.9540     0.0800    -2.0630 hn         1 RR6       0.590000
     75 H26         -0.9930    -0.0230     2.0680 hn         1 RR6       0.590000
     76 H24          3.7830    -0.4380     0.0360 h5         1 RR6       0.008100
     77 N19          0.0510    -0.0420    -2.2390 nu         1 RR6      -0.942400
     78 O28          2.6510    -0.4330    -7.9940 oh         1 RR6      -0.577600
     79 O29          4.3480    -0.3350   -11.5840 oh         1 RR6      -0.570100
     80 O78          2.5070    -0.7990     8.0340 oh         1 RR6      -0.577600
     81 O87         -2.5310     0.1830     2.6310 o          1 RR6      -0.672867
     82 O88         -2.7780     1.5540     4.6430 o          1 RR6      -0.672867
     83 O91         -3.1810    -0.8810     4.7340 o          1 RR6      -0.672867
     84 O89         -3.5210     0.6600     8.7540 o          1 RR6      -0.691867
     85 O90         -1.8100     1.4780    10.3090 o          1 RR6      -0.691867
     86 O92         -2.4430    -0.9150    10.2910 o          1 RR6      -0.691867
     87 S35         -2.1460     0.7340    -9.5280 s6         1 RR6       1.265600
     88 O37         -3.0900    -0.6720    -4.7910 o          1 RR6      -0.672867
     89 O38         -2.4780     0.3150    -2.6400 o          1 RR6      -0.672867
     90 O41         -2.7050     1.7600    -4.6020 o          1 RR6      -0.672867
     91 S31         -0.3490    -0.7690   -15.1480 s6         1 RR6       1.270600
@<TRIPOS>BOND
     1     1     2 ar  
     2     1     6 ar  
     3     1     7 1   
     4     2     3 ar  
     5     2    58 1   
     6     3     4 ar  
     7     3    59 1   
     8     4     5 ar  
     9     4    11 1   
    10     5     6 ar  
    11     5    60 1   
    12     6    25 1   
    13     7    61 1   
    14     8    11 1   
    15     9    11 1   
    16    10    11 1   
    17    12    13 ar  
    18    12    17 ar  
    19    12    80 1   
    20    13    14 ar  
    21    13    24 1   
    22    14    15 ar  
    23    14    23 1   
    24    15    16 ar  
    25    15    62 1   
    26    16    17 ar  
    27    16    21 ar  
    28    17    18 ar  
    29    18    19 ar  
    30    18    63 1   
    31    19    20 ar  
    32    19    64 1   
    33    20    21 ar  
    34    20    51 1   
    35    21    22 1   
    36    22    81 1   
    37    22    82 1   
    38    22    83 1   
    39    23    84 1   
    40    23    85 1   
    41    23    86 1   
    42    24    25 2   
    43    26    27 ar  
    44    26    31 ar  
    45    26    79 1   
    46    27    28 ar  
    47    27    66 1   
    48    28    29 ar  
    49    28    67 1   
    50    29    30 ar  
    51    29    91 1   
    52    30    31 ar  
    53    30    68 1   
    54    31    49 1   
    55    32    91 1   
    56    33    91 1   
    57    34    91 1   
    58    35    36 ar  
    59    35    40 ar  
    60    35    78 1   
    61    36    37 ar  
    62    36    50 1   
    63    37    38 ar  
    64    37    87 1   
    65    38    39 ar  
    66    38    70 1   
    67    39    40 ar  
    68    39    44 ar  
    69    40    41 ar  
    70    41    42 ar  
    71    41    71 1   
    72    42    43 ar  
    73    42    72 1   
    74    43    44 ar  
    75    43    77 1   
    76    44    45 1   
    77    45    88 1   
    78    45    89 1   
    79    45    90 1   
    80    46    87 1   
    81    47    87 1   
    82    48    87 1   
    83    49    50 2   
    84    51    54 1   
    85    51    75 1   
    86    52    53 ar  
    87    52    57 ar  
    88    52    77 1   
    89    53    54 ar  
    90    54    55 ar  
    91    55    56 ar  
    92    56    57 ar  
    93    56    76 1   
    94    65    80 1   
    95    69    79 1   
    96    73    78 1   
    97    74    77 1   
@<TRIPOS>SUBSTRUCTURE
     1 RR6         1 TEMP              0 ****  ****    0 ROOT
