@<TRIPOS>MOLECULE
RR6
   91    97     1     0     0
SMALL
No Charge or Current Charge


@<TRIPOS>ATOM
      1 C60          2.4660    -1.9990    12.4340 ca         1 RR6       0.150100
      2 C61          2.9480    -2.0090    13.7500 ca         1 RR6      -0.213500
      3 C62          2.4450    -1.0990    14.6940 ca         1 RR6      -0.009000
      4 C63          1.4530    -0.1680    14.3220 ca         1 RR6      -0.268500
      5 C64          0.9660    -0.1640    12.9970 ca         1 RR6       0.047500
      6 C54          1.4780    -1.0690    12.0410 ca         1 RR6       0.020900
      7 O79          2.9470    -2.9090    11.5380 oh         1 RR6      -0.570100
      8 O82          1.8920     1.1990    16.4820 o          1 RR6      -0.704200
      9 O83         -0.3750     0.2480    16.0810 o          1 RR6      -0.704200
     10 O84          0.4170     2.1710    14.7140 o          1 RR6      -0.704200
     11 S81          0.7630     1.0170    15.5570 s6         1 RR6       1.270600
     12 C55          1.3860    -0.3930     7.7220 ca         1 RR6       0.181600
     13 C53          0.5220     0.0250     8.7570 ca         1 RR6       0.001900
     14 C59         -0.7900     0.4490     8.4380 ca         1 RR6      -0.142500
     15 C58         -1.2160     0.3930     7.0890 ca         1 RR6      -0.058000
     16 C57         -0.3750    -0.0580     6.0340 ca         1 RR6       0.109000
     17 C56          0.9510    -0.4300     6.3760 ca         1 RR6      -0.129000
     18 C65          1.8380    -0.8480     5.3700 ca         1 RR6      -0.055000
     19 C66          1.4310    -0.8630     4.0400 ca         1 RR6      -0.191000
     20 C67          0.1350    -0.4810     3.6660 ca         1 RR6       0.403000
     21 C68         -0.8120    -0.1280     4.6650 ca         1 RR6      -0.283000
     22 S86         -2.5910     0.2400     4.2350 s6         1 RR6       1.253100
     23 S85         -1.9630     1.0860     9.7530 s6         1 RR6       1.265600
     24 N51          1.0010     0.0400    10.0900 ne         1 RR6      -0.088400
     25 N52          0.9930    -1.0730    10.7000 nf         1 RR6      -0.372900
     26 C10          2.8320     0.5240   -12.3880 ca         1 RR6       0.150100
     27 C11          3.2030     0.6180   -13.7370 ca         1 RR6      -0.213500
     28 C12          2.5840    -0.1930   -14.7010 ca         1 RR6      -0.009000
     29 C13          1.5810    -1.1060   -14.3200 ca         1 RR6      -0.268500
     30 C14          1.2140    -1.2050   -12.9600 ca         1 RR6       0.047500
     31 C4           1.8310    -0.3960   -11.9850 ca         1 RR6       0.020900
     32 O32          0.6270    -1.2640   -16.7190 o          1 RR6      -0.704200
     33 O33         -0.4580    -2.6000   -14.9070 o          1 RR6      -0.704200
     34 O34          1.8010    -3.2320   -15.7490 o          1 RR6      -0.704200
     35 C5           1.2790    -0.1710    -7.7230 ca         1 RR6       0.181600
     36 C3           0.4010     0.2870    -8.7370 ca         1 RR6       0.001900
     37 C9          -0.9140     0.6750    -8.3840 ca         1 RR6      -0.142500
     38 C8          -1.3210     0.5770    -7.0320 ca         1 RR6      -0.058000
     39 C7          -0.4620     0.1080    -6.0010 ca         1 RR6       0.109000
     40 C6           0.8600    -0.2500    -6.3730 ca         1 RR6      -0.129000
     41 C15          1.7610    -0.6960    -5.3910 ca         1 RR6      -0.055000
     42 C16          1.3720    -0.7500    -4.0560 ca         1 RR6      -0.191000
     43 C17          0.0820    -0.3800    -3.6530 ca         1 RR6       0.403000
     44 C18         -0.8800    -0.0000    -4.6290 ca         1 RR6      -0.283000
     45 S36         -2.6530     0.3520    -4.1630 s6         1 RR6       1.253100
     46 O39         -1.3940     2.5030   -10.1910 o          1 RR6      -0.691867
     47 O40         -2.2230     0.1910   -10.5950 o          1 RR6      -0.691867
     48 O42         -3.3180     1.6250    -8.8820 o          1 RR6      -0.691867
     49 N1           1.4560    -0.5530   -10.6270 ne         1 RR6      -0.372900
     50 N2           0.8380     0.4200   -10.0950 nf         1 RR6      -0.088400
     51 N26         -0.1700    -0.5060     2.3060 nu         1 RR6      -0.942400
     52 C20          0.5060    -0.2380    -1.1220 ca         1 RR6       0.431400
     53 N21         -0.1670    -0.4980     0.0080 nb         1 RR6      -0.283000
     54 C22          0.5230    -0.2690     1.1350 ca         1 RR6       0.431400
     55 N23          1.7720     0.2240     1.1980 nb         1 RR6      -0.334000
     56 C24          2.3440     0.4660     0.0030 ca         1 RR6       0.175900
     57 N25          1.7550     0.2570    -1.1900 nb         1 RR6      -0.334000
     58 H61          3.7070    -2.7290    14.0460 ha         1 RR6       0.081500
     59 H62          2.8220    -1.1260    15.7140 ha         1 RR6       0.100500
     60 H64          0.1900     0.5400    12.7010 ha         1 RR6       0.200500
     61 H79          2.4090    -2.8040    10.7230 ho         1 RR6       0.476500
     62 H58         -2.2220     0.7300     6.8830 ha         1 RR6       0.184000
     63 H65          2.8550    -1.1540     5.6030 ha         1 RR6       0.093000
     64 H66          2.1410    -1.1970     3.2910 ha         1 RR6       0.131000
     65 H78          2.7420    -0.6710     9.0210 ho         1 RR6       0.498500
     66 H11          3.9730     1.3230   -14.0400 ha         1 RR6       0.081500
     67 H12          2.8850    -0.1130   -15.7440 ha         1 RR6       0.100500
     68 H14          0.4520    -1.9140   -12.6440 ha         1 RR6       0.200500
     69 H29          2.9460     1.2390   -10.6380 ho         1 RR6       0.476500
     70 H8          -2.3270     0.8980    -6.8030 ha         1 RR6       0.184000
     71 H15          2.7750    -0.9930    -5.6450 ha         1 RR6       0.093000
     72 H16          2.0920    -1.1050    -3.3270 ha         1 RR6       0.131000
     73 H28          2.5200    -0.6760    -9.0460 ho         1 RR6       0.498500
     74 H19         -1.2170    -0.4310    -2.1160 hn         1 RR6       0.590000
     75 H26         -1.1860    -0.4930     2.1480 hn         1 RR6       0.590000
     76 H24          3.3570     0.8650     0.0010 h5         1 RR6       0.008100
     77 N19         -0.2040    -0.4430    -2.2900 nu         1 RR6      -0.942400
     78 O28          2.5460    -0.5550    -8.0680 oh         1 RR6      -0.577600
     79 O29          3.4460     1.3340   -11.4770 oh         1 RR6      -0.570100
     80 O78          2.6690    -0.7560     8.0450 oh         1 RR6      -0.577600
     81 O87         -2.7200    -0.1140     2.8140 o          1 RR6      -0.672867
     82 O88         -2.6650     1.6740     4.5410 o          1 RR6      -0.672867
     83 O91         -3.3080    -0.6440     5.1640 o          1 RR6      -0.672867
     84 O89         -3.0970     1.5970     8.9660 o          1 RR6      -0.691867
     85 O90         -1.1530     2.1100    10.4320 o          1 RR6      -0.691867
     86 O92         -2.2370    -0.1290    10.5370 o          1 RR6      -0.691867
     87 S35         -2.1110     1.3290    -9.6690 s6         1 RR6       1.265600
     88 O37         -3.3810    -0.5170    -5.0970 o          1 RR6      -0.672867
     89 O38         -2.7580    -0.0280    -2.7480 o          1 RR6      -0.672867
     90 O41         -2.7370     1.7920    -4.4420 o          1 RR6      -0.672867
     91 S31          0.7800    -2.1870   -15.5840 s6         1 RR6       1.270600
@<TRIPOS>BOND
     1     1     2 ar  
     2     1     6 ar  
     3     1     7 1   
     4     2     3 ar  
     5     2    58 1   
     6     3     4 ar  
     7     3    59 1   
     8     4     5 ar  
     9     4    11 1   
    10     5     6 ar  
    11     5    60 1   
    12     6    25 1   
    13     7    61 1   
    14     8    11 1   
    15     9    11 1   
    16    10    11 1   
    17    12    13 ar  
    18    12    17 ar  
    19    12    80 1   
    20    13    14 ar  
    21    13    24 1   
    22    14    15 ar  
    23    14    23 1   
    24    15    16 ar  
    25    15    62 1   
    26    16    17 ar  
    27    16    21 ar  
    28    17    18 ar  
    29    18    19 ar  
    30    18    63 1   
    31    19    20 ar  
    32    19    64 1   
    33    20    21 ar  
    34    20    51 1   
    35    21    22 1   
    36    22    81 1   
    37    22    82 1   
    38    22    83 1   
    39    23    84 1   
    40    23    85 1   
    41    23    86 1   
    42    24    25 2   
    43    26    27 ar  
    44    26    31 ar  
    45    26    79 1   
    46    27    28 ar  
    47    27    66 1   
    48    28    29 ar  
    49    28    67 1   
    50    29    30 ar  
    51    29    91 1   
    52    30    31 ar  
    53    30    68 1   
    54    31    49 1   
    55    32    91 1   
    56    33    91 1   
    57    34    91 1   
    58    35    36 ar  
    59    35    40 ar  
    60    35    78 1   
    61    36    37 ar  
    62    36    50 1   
    63    37    38 ar  
    64    37    87 1   
    65    38    39 ar  
    66    38    70 1   
    67    39    40 ar  
    68    39    44 ar  
    69    40    41 ar  
    70    41    42 ar  
    71    41    71 1   
    72    42    43 ar  
    73    42    72 1   
    74    43    44 ar  
    75    43    77 1   
    76    44    45 1   
    77    45    88 1   
    78    45    89 1   
    79    45    90 1   
    80    46    87 1   
    81    47    87 1   
    82    48    87 1   
    83    49    50 2   
    84    51    54 1   
    85    51    75 1   
    86    52    53 ar  
    87    52    57 ar  
    88    52    77 1   
    89    53    54 ar  
    90    54    55 ar  
    91    55    56 ar  
    92    56    57 ar  
    93    56    76 1   
    94    65    80 1   
    95    69    79 1   
    96    73    78 1   
    97    74    77 1   
@<TRIPOS>SUBSTRUCTURE
     1 RR6         1 TEMP              0 ****  ****    0 ROOT
