@<TRIPOS>MOLECULE
RR7
   23    23     1     0     0
SMALL
bcc


@<TRIPOS>ATOM
      1 C1           0.0980    33.8110    24.7970 c6         1 RR7       0.350900
      2 C2          -0.8320    32.6790    24.3960 c6         1 RR7      -0.107400
      3 C3          -0.0380    31.4040    24.1730 c6         1 RR7       0.154100
      4 C4           1.0890    31.6660    23.1820 c6         1 RR7       0.077100
      5 C5           1.9300    32.8520    23.6740 c6         1 RR7       0.137100
      6 C6           3.0830    33.2040    22.7610 c3         1 RR7       0.141400
      7 O1          -0.6280    34.9810    24.8890 oh         1 RR7      -0.569800
      8 O3          -0.9180    30.4030    23.7210 oh         1 RR7      -0.590800
      9 O4           1.8620    30.4890    23.0870 oh         1 RR7      -0.608800
     10 O5           1.1050    33.9890    23.8220 os         1 RR7      -0.431600
     11 O6           2.6050    33.4440    21.4590 oh         1 RR7      -0.588800
     12 H1           0.5830    33.5640    25.7570 h2         1 RR7       0.010700
     13 H21         -1.5790    32.5250    25.1790 hc         1 RR7       0.079200
     14 H22         -1.3580    32.9550    23.4770 hc         1 RR7       0.079200
     15 H3           0.4220    31.1060    25.1300 h1         1 RR7       0.033700
     16 H4           0.6390    31.9230    22.2140 h1         1 RR7       0.077700
     17 H5           2.3740    32.5780    24.6460 h1         1 RR7       0.040700
     18 H61          3.5990    34.0810    23.1750 h1         1 RR7       0.029700
     19 H62          3.8040    32.3790    22.7880 h1         1 RR7       0.029700
     20 HO1         -0.1210    35.6320    25.3860 ho         1 RR7       0.418000
     21 HO3         -0.4050    29.5990    23.5910 ho         1 RR7       0.418000
     22 HO4          2.3010    30.4710    22.2320 ho         1 RR7       0.415000
     23 HO6          3.3600    33.6110    20.8880 ho         1 RR7       0.404000
@<TRIPOS>BOND
     1     1     2 1   
     2     1     7 1   
     3     1    10 1   
     4     1    12 1   
     5     2     3 1   
     6     2    13 1   
     7     2    14 1   
     8     3     4 1   
     9     3     8 1   
    10     3    15 1   
    11     4     5 1   
    12     4     9 1   
    13     4    16 1   
    14     5     6 1   
    15     5    10 1   
    16     5    17 1   
    17     6    11 1   
    18     6    18 1   
    19     6    19 1   
    20     7    20 1   
    21     8    21 1   
    22     9    22 1   
    23    11    23 1   
@<TRIPOS>SUBSTRUCTURE
     1 RR7         1 TEMP              0 ****  ****    0 ROOT
