@<TRIPOS>MOLECULE
RR7
   23    23     1     0     0
SMALL
No Charge or Current Charge


@<TRIPOS>ATOM
      1 C1           0.0880    33.7820    24.9320 c6         1 RR7       0.397300
      2 C2          -0.8830    32.6710    24.4840 c6         1 RR7      -0.107400
      3 C3          -0.0940    31.3670    24.2400 c6         1 RR7       0.177300
      4 C4           1.0670    31.6090    23.2290 c6         1 RR7       0.100300
      5 C5           1.9470    32.7960    23.7450 c6         1 RR7       0.160300
      6 C6           3.0970    33.1890    22.7570 c3         1 RR7       0.164600
      7 O1          -0.5730    35.0230    25.0000 oh         1 RR7      -0.632000
      8 O3          -0.9600    30.3380    23.7520 oh         1 RR7      -0.653000
      9 O4           1.8280    30.3910    23.0480 oh         1 RR7      -0.731000
     10 O5           1.1100    33.9650    23.9520 os         1 RR7      -0.478000
     11 O6           2.6300    33.6310    21.4660 oh         1 RR7      -0.711000
     12 H1           0.5390    33.5370    25.9050 h2         1 RR7       0.010700
     13 H21         -1.6480    32.5130    25.2550 hc         1 RR7       0.079200
     14 H22         -1.4050    32.9770    23.5680 hc         1 RR7       0.079200
     15 H3           0.3470    31.0510    25.1970 h1         1 RR7       0.033700
     16 H4           0.6190    31.9180    22.2710 h1         1 RR7       0.077700
     17 H5           2.4050    32.5190    24.7060 h1         1 RR7       0.040700
     18 H61          3.6840    33.9870    23.2330 h1         1 RR7       0.029700
     19 H62          3.7690    32.3280    22.6420 h1         1 RR7       0.029700
     20 HO1         -0.0020    35.6010    24.4520 ho         1 RR7       0.457000
     21 HO3         -0.3500    29.6580    23.3830 ho         1 RR7       0.457000
     22 HO4          2.3520    30.4940    22.2180 ho         1 RR7       0.514000
     23 HO6          3.4100    33.9990    20.9880 ho         1 RR7       0.503000
@<TRIPOS>BOND
     1     1     2 1   
     2     1     7 1   
     3     1    10 1   
     4     1    12 1   
     5     2     3 1   
     6     2    13 1   
     7     2    14 1   
     8     3     4 1   
     9     3     8 1   
    10     3    15 1   
    11     4     5 1   
    12     4     9 1   
    13     4    16 1   
    14     5     6 1   
    15     5    10 1   
    16     5    17 1   
    17     6    11 1   
    18     6    18 1   
    19     6    19 1   
    20     7    20 1   
    21     8    21 1   
    22     9    22 1   
    23    11    23 1   
@<TRIPOS>SUBSTRUCTURE
     1 RR7         1 TEMP              0 ****  ****    0 ROOT
