@<TRIPOS>MOLECULE
RR8
   58    61     1     0     0
SMALL
No Charge or Current Charge


@<TRIPOS>ATOM
      1 S1          -3.0750     5.3800    -0.5590 s6         1 RR8       1.220100
      2 C2          -1.0560     2.0580     0.4880 c5         1 RR8      -0.153700
      3 C3          -2.4180     1.5200    -0.0980 c5         1 RR8      -0.154700
      4 N4          -2.4560     3.7930    -0.3570 n3         1 RR8      -0.765500
      5 C5           0.1410     1.6280    -0.4030 c          1 RR8       0.630100
      6 N6           6.1410    -1.5130    -0.5900 n          1 RR8      -0.200200
      7 C7          -2.9650     0.3180     0.7110 c          1 RR8       0.616100
      8 C8          -3.3540     2.7270     0.1080 c5         1 RR8       0.220800
      9 C9          -1.2090     3.6080     0.4180 c5         1 RR8       0.223800
     10 C10          6.4870    -2.7940    -0.0790 c          1 RR8       0.556200
     11 C11          4.8130    -0.9620    -0.3910 ca         1 RR8       0.025600
     12 N12          1.0590     0.9420     0.3830 ns         1 RR8      -0.135000
     13 C13          4.2150    -0.9830     0.8870 ca         1 RR8      -0.099000
     14 N14         -3.1740    -0.7510    -0.1530 ns         1 RR8      -0.141000
     15 C15          2.3130     0.3320     0.0840 ca         1 RR8      -0.050000
     16 C16          2.9790    -0.3600     1.1140 ca         1 RR8       0.125000
     17 O17         -1.9160     6.2510    -0.7800 o          1 RR8      -0.526000
     18 O18         -4.1200     5.2940    -1.5820 o          1 RR8      -0.526000
     19 C19          7.0440    -0.8210    -1.4130 cc         1 RR8      -0.024400
     20 O20          0.2590     1.8310    -1.6050 o          1 RR8      -0.571100
     21 O21         -3.1640     0.3020     1.9200 o          1 RR8      -0.572100
     22 C22          7.8270    -3.2790    -0.4420 cc         1 RR8      -0.319200
     23 O23          5.7310    -3.4790     0.5960 o          1 RR8      -0.541000
     24 C24          4.1700    -0.2200    -1.4090 ca         1 RR8      -0.095000
     25 C25          2.9290     0.4030    -1.1840 ca         1 RR8      -0.096000
     26 C26          8.2870    -1.3190    -1.7540 cd         1 RR8      -0.299000
     27 C27          8.7060    -2.5920    -1.2480 cd         1 RR8      -0.084000
     28 C28         -3.6450    -2.0760     0.0620 ca         1 RR8      -0.023000
     29 C29         -3.8040     5.7830     1.0200 c3         1 RR8      -0.383100
     30 F30          2.4330    -0.4170     2.3500 f          1 RR8      -0.183000
     31 C31         -4.5610    -4.7350     0.3400 ca         1 RR8       0.096000
     32 Cl3         -5.1310    -6.3900     0.5130 cl         1 RR8      -0.199000
     33 C34         -3.7230    -2.9280    -1.0570 ca         1 RR8      -0.140500
     34 C33         -4.0330    -2.5710     1.3280 ca         1 RR8      -0.140500
     35 C36         -4.4890    -3.8960     1.4630 ca         1 RR8      -0.074500
     36 C35         -4.1780    -4.2520    -0.9210 ca         1 RR8      -0.074500
     37 H291        -3.0220     5.7000     1.7800 h1         1 RR8       0.102033
     38 H292        -4.1800     6.8090     0.9510 h1         1 RR8       0.102033
     39 H293        -4.6190     5.0770     1.2030 h1         1 RR8       0.102033
     40 H2          -0.8990     1.7500     1.5290 hc         1 RR8       0.077700
     41 H3          -2.3470     1.2830    -1.1670 hc         1 RR8       0.113700
     42 H91C        -1.3040     4.0280     1.4300 h1         1 RR8       0.073200
     43 H92C        -0.3490     4.1000    -0.0590 h1         1 RR8       0.073200
     44 H81C        -4.2680     2.6460    -0.4970 h1         1 RR8       0.062700
     45 H82C        -3.6430     2.8630     1.1610 h1         1 RR8       0.062700
     46 H12          0.7890     0.8530     1.3550 hn         1 RR8       0.166000
     47 H19          6.6830     0.1540    -1.7220 h4         1 RR8       0.204000
     48 H14         -2.9480    -0.5530    -1.1190 hn         1 RR8       0.154000
     49 H22          8.0800    -4.2520    -0.0380 ha         1 RR8       0.210000
     50 H13          4.7110    -1.4690     1.7220 ha         1 RR8       0.149000
     51 H24          4.6080    -0.1530    -2.4020 ha         1 RR8       0.132000
     52 H25          2.4700     0.9400    -2.0080 ha         1 RR8       0.153000
     53 H26          8.9510    -0.7370    -2.3900 ha         1 RR8       0.202000
     54 H27          9.6840    -3.0040    -1.4940 ha         1 RR8       0.187000
     55 H33         -3.9910    -1.9520     2.2180 ha         1 RR8       0.133500
     56 H34         -3.4290    -2.5670    -2.0410 ha         1 RR8       0.133500
     57 H35         -4.2340    -4.9030    -1.7900 ha         1 RR8       0.132000
     58 H36         -4.7860    -4.2720     2.4390 ha         1 RR8       0.132000
@<TRIPOS>BOND
     1     1     4 1   
     2     1    17 2   
     3     1    18 2   
     4     1    29 1   
     5     2     3 1   
     6     2     5 1   
     7     2     9 1   
     8     2    40 1   
     9     3     7 1   
    10     3     8 1   
    11     3    41 1   
    12     4     8 1   
    13     4     9 1   
    14     5    12 1   
    15     5    20 2   
    16     6    10 1   
    17     6    11 1   
    18     6    19 1   
    19     7    14 1   
    20     7    21 2   
    21     8    44 1   
    22     8    45 1   
    23     9    42 1   
    24     9    43 1   
    25    10    22 1   
    26    10    23 2   
    27    11    13 ar  
    28    11    24 ar  
    29    12    15 1   
    30    12    46 1   
    31    13    16 ar  
    32    13    50 1   
    33    14    28 1   
    34    14    48 1   
    35    15    16 ar  
    36    15    25 ar  
    37    16    30 1   
    38    19    26 2   
    39    19    47 1   
    40    22    27 2   
    41    22    49 1   
    42    24    25 ar  
    43    24    51 1   
    44    25    52 1   
    45    26    27 1   
    46    26    53 1   
    47    27    54 1   
    48    28    33 ar  
    49    28    34 ar  
    50    29    37 1   
    51    29    38 1   
    52    29    39 1   
    53    31    32 1   
    54    31    35 ar  
    55    31    36 ar  
    56    33    36 ar  
    57    33    56 1   
    58    34    35 ar  
    59    34    55 1   
    60    35    58 1   
    61    36    57 1   
@<TRIPOS>SUBSTRUCTURE
     1 RR8         1 TEMP              0 ****  ****    0 ROOT
