@<TRIPOS>MOLECULE
RR8
   58    61     1     0     0
SMALL
bcc


@<TRIPOS>ATOM
      1 S1          -2.9730     4.8580    -0.0150 s6         1 RR8       1.250900
      2 C2          -0.9580     1.6100    -0.0570 c5         1 RR8      -0.153700
      3 C3          -2.2500     1.0890    -0.6680 c5         1 RR8      -0.154700
      4 N4          -2.4140     3.3970    -0.5060 n3         1 RR8      -0.765500
      5 C5           0.2790     0.9100    -0.5780 c          1 RR8       0.697100
      6 N6           6.5580    -1.0020    -0.2360 n          1 RR8      -0.267200
      7 C7          -2.6380    -0.2750    -0.1390 c          1 RR8       0.683100
      8 C8          -3.2460     2.2050    -0.3490 c5         1 RR8       0.220800
      9 C9          -0.9790     3.0950    -0.4370 c5         1 RR8       0.223800
     10 C10          7.0700    -1.8760     0.7290 c          1 RR8       0.698700
     11 C11          5.2090    -0.5640    -0.0950 ca         1 RR8       0.025600
     12 N12          1.2790     0.8200     0.3340 ns         1 RR8      -0.461100
     13 C13          4.8810     0.3500     0.8950 ca         1 RR8      -0.117000
     14 N14         -3.8600    -0.6930    -0.5480 ns         1 RR8      -0.467100
     15 C15          2.5690     0.3290     0.1310 ca         1 RR8       0.042600
     16 C16          3.5790     0.7760     0.9850 ca         1 RR8       0.089900
     17 O17         -2.0240     5.8530    -0.4900 o          1 RR8      -0.596800
     18 O18         -4.3670     4.9330    -0.4230 o          1 RR8      -0.596800
     19 C19          7.2720    -0.5720    -1.3140 cc         1 RR8       0.025600
     20 O20          0.3630     0.5150    -1.7240 o          1 RR8      -0.571100
     21 O21         -1.8930    -0.9190     0.5750 o          1 RR8      -0.572100
     22 C22          8.4320    -2.2790     0.4990 cc         1 RR8      -0.269200
     23 O23          6.3710    -2.2370     1.6670 o          1 RR8      -0.616500
     24 C24          4.2360    -1.0340    -0.9580 ca         1 RR8      -0.113000
     25 C25          2.9250    -0.5930    -0.8490 ca         1 RR8      -0.114000
     26 C26          8.5510    -0.9650    -1.5200 cd         1 RR8      -0.249000
     27 C27          9.1370    -1.8440    -0.5770 cd         1 RR8      -0.034000
     28 C28         -4.5310    -1.8870    -0.2660 ca         1 RR8       0.069600
     29 C29         -2.9200     4.8470     1.7630 c3         1 RR8      -0.272300
     30 F30          3.2510     1.6670     1.9340 f          1 RR8      -0.147900
     31 C31         -6.0190    -4.1940     0.1860 ca         1 RR8       0.004400
     32 CL3         -6.9440    -5.6330     0.4700 cl         1 RR8      -0.107400
     33 C34         -5.7660    -2.0750    -0.8890 ca         1 RR8      -0.158500
     34 C33         -4.0500    -2.8770     0.5920 ca         1 RR8      -0.158500
     35 C36         -4.7980    -4.0250     0.8130 ca         1 RR8      -0.092500
     36 C35         -6.5100    -3.2190    -0.6680 ca         1 RR8      -0.092500
     37 H291        -1.8970     4.6920     2.1010 h1         1 RR8       0.102033
     38 H292        -3.2790     5.8120     2.1160 h1         1 RR8       0.102033
     39 H293        -3.5650     4.0570     2.1420 h1         1 RR8       0.102033
     40 H2          -1.0150     1.5250     1.0320 hc         1 RR8       0.077700
     41 H3          -2.1380     1.0190    -1.7560 hc         1 RR8       0.113700
     42 H91C        -0.4550     3.7010     0.3030 h1         1 RR8       0.073200
     43 H92C        -0.5130     3.2740    -1.4080 h1         1 RR8       0.073200
     44 H81C        -4.0890     2.2280    -1.0370 h1         1 RR8       0.062700
     45 H82C        -3.6330     2.0950     0.6710 h1         1 RR8       0.062700
     46 H12          1.0890     1.2040     1.2470 hn         1 RR8       0.332500
     47 H19          6.7540     0.1030    -1.9810 h4         1 RR8       0.154000
     48 H14         -4.3510    -0.0800    -1.1820 hn         1 RR8       0.320500
     49 H22          8.8710    -2.9530     1.2210 ha         1 RR8       0.160000
     50 H13          5.6270     0.7420     1.5750 ha         1 RR8       0.167000
     51 H24          4.4900    -1.7560    -1.7230 ha         1 RR8       0.150000
     52 H25          2.1850    -0.9840    -1.5280 ha         1 RR8       0.171000
     53 H26          9.0960    -0.6050    -2.3780 ha         1 RR8       0.152000
     54 H27         10.1590    -2.1720    -0.7170 ha         1 RR8       0.137000
     55 H33         -3.1030    -2.7710     1.0930 ha         1 RR8       0.151500
     56 H34         -6.1570    -1.3170    -1.5570 ha         1 RR8       0.151500
     57 H35         -7.4640    -3.3430    -1.1620 ha         1 RR8       0.150000
     58 H36         -4.4130    -4.7850     1.4800 ha         1 RR8       0.150000
@<TRIPOS>BOND
     1     1     4 1   
     2     1    17 2   
     3     1    18 2   
     4     1    29 1   
     5     2     3 1   
     6     2     5 1   
     7     2     9 1   
     8     2    40 1   
     9     3     7 1   
    10     3     8 1   
    11     3    41 1   
    12     4     8 1   
    13     4     9 1   
    14     5    12 1   
    15     5    20 2   
    16     6    10 1   
    17     6    11 1   
    18     6    19 1   
    19     7    14 1   
    20     7    21 2   
    21     8    44 1   
    22     8    45 1   
    23     9    42 1   
    24     9    43 1   
    25    10    22 1   
    26    10    23 2   
    27    11    13 ar  
    28    11    24 ar  
    29    12    15 1   
    30    12    46 1   
    31    13    16 ar  
    32    13    50 1   
    33    14    28 1   
    34    14    48 1   
    35    15    16 ar  
    36    15    25 ar  
    37    16    30 1   
    38    19    26 2   
    39    19    47 1   
    40    22    27 2   
    41    22    49 1   
    42    24    25 ar  
    43    24    51 1   
    44    25    52 1   
    45    26    27 1   
    46    26    53 1   
    47    27    54 1   
    48    28    33 ar  
    49    28    34 ar  
    50    29    37 1   
    51    29    38 1   
    52    29    39 1   
    53    31    32 1   
    54    31    35 ar  
    55    31    36 ar  
    56    33    36 ar  
    57    33    56 1   
    58    34    35 ar  
    59    34    55 1   
    60    35    58 1   
    61    36    57 1   
@<TRIPOS>SUBSTRUCTURE
     1 RR8         1 TEMP              0 ****  ****    0 ROOT
