@<TRIPOS>MOLECULE
RR9
   61    64     1     0     0
SMALL
abcg2


@<TRIPOS>ATOM
      1 C1         -60.4760    24.6470   -11.3530 c3         1 RR9      -0.106100
      2 N1         -61.7330    24.3730    -9.2510 na         1 RR9      -0.296300
      3 O1         -65.3340    25.0910    -2.7220 o          1 RR9      -0.542000
      4 C2         -61.0380    25.3370   -10.1150 c3         1 RR9       0.092300
      5 N2         -63.1930    22.7940    -8.5950 nc         1 RR9      -0.552100
      6 C3         -61.9570    26.5070   -10.4600 c3         1 RR9      -0.106100
      7 C4         -62.7510    23.5120    -9.6000 cd         1 RR9       0.400700
      8 C5         -61.5170    24.1910    -7.9060 ca         1 RR9       0.174500
      9 C7         -62.3750    22.8280    -6.1620 ca         1 RR9       0.460900
     10 C9         -63.1320    22.3640    -3.2030 cc         1 RR9       0.097400
     11 C10        -62.3660    22.3770    -2.0730 cd         1 RR9      -0.314000
     12 C11        -62.5780    23.4010    -1.1330 cd         1 RR9      -0.072000
     13 C12        -63.5240    24.3830    -1.3040 cc         1 RR9      -0.289000
     14 C14        -63.6990    25.1690     1.0580 ca         1 RR9      -0.160000
     15 C15        -63.7830    26.2040     1.9770 ca         1 RR9      -0.074000
     16 C16        -63.8450    27.5110     1.5100 ca         1 RR9      -0.167000
     17 C17        -63.8200    27.7160     0.1350 ca         1 RR9       0.340900
     18 C18        -64.3860    24.3380    -2.4680 c          1 RR9       0.566200
     19 C21        -58.9810    23.7790    -2.9940 c3         1 RR9       0.148600
     20 C22        -59.7430    26.2000    -2.8370 c3         1 RR9      -0.088400
     21 C23        -60.8550    27.1930    -3.1600 c3         1 RR9      -0.099100
     22 C13        -63.6710    25.4660    -0.3080 ca         1 RR9       0.424800
     23 C19        -60.6900    24.3910    -5.8470 ca         1 RR9       0.438900
     24 C20        -59.9370    24.8430    -3.5160 c3         1 RR9       0.250500
     25 C6         -62.4280    23.2060    -7.5140 ca         1 RR9      -0.137600
     26 N3         -63.2030    21.8950    -5.6250 nu         1 RR9      -0.939100
     27 N4         -64.0950    23.3010    -3.3510 ns         1 RR9      -0.350100
     28 N5         -63.7370    26.7290    -0.7580 nb         1 RR9      -0.645000
     29 N6         -61.4910    23.4200    -5.3580 nb         1 RR9      -0.345000
     30 N7         -59.8530    24.9910    -4.9630 nu         1 RR9      -0.915100
     31 N8         -60.6390    24.8200    -7.1220 nb         1 RR9      -0.288000
     32 H2         -59.8270    23.8160   -11.0730 hc         1 RR9       0.047033
     33 H3         -61.2760    24.2660   -11.9900 hc         1 RR9       0.047033
     34 H1         -59.8920    25.3610   -11.9350 hc         1 RR9       0.047033
     35 H4         -60.2120    25.7040    -9.5070 h1         1 RR9       0.089700
     36 H23        -57.0460    23.4680    -2.9670 ho         1 RR9       0.439000
     37 H6         -62.3320    26.9830    -9.5540 hc         1 RR9       0.047033
     38 H7         -61.4080    27.2490   -11.0410 hc         1 RR9       0.047033
     39 H5         -62.8080    26.1670   -11.0540 hc         1 RR9       0.047033
     40 H8         -63.1220    23.4610   -10.6120 h5         1 RR9       0.064800
     41 H13        -61.5780    21.6510    -1.9430 ha         1 RR9       0.196000
     42 H14        -61.9400    23.4410    -0.2580 ha         1 RR9       0.183000
     43 H16        -63.8080    25.9930     3.0380 ha         1 RR9       0.117000
     44 H17        -63.9140    28.3510     2.1870 ha         1 RR9       0.122000
     45 H18        -63.8650    28.7230    -0.2670 h4         1 RR9       0.020100
     46 H21        -59.1680    23.6330    -1.9240 h1         1 RR9       0.029700
     47 H22        -59.1810    22.8350    -3.5100 h1         1 RR9       0.029700
     48 H25        -58.7710    26.6100    -3.1250 hc         1 RR9       0.050200
     49 H24        -59.7020    26.0290    -1.7580 hc         1 RR9       0.050200
     50 H27        -60.6840    28.1460    -2.6560 hc         1 RR9       0.042033
     51 H28        -60.9130    27.3890    -4.2330 hc         1 RR9       0.042033
     52 H26        -61.8250    26.8110    -2.8330 hc         1 RR9       0.042033
     53 H20        -60.9400    24.4820    -3.2900 h1         1 RR9       0.082700
     54 H10        -63.7230    20.5550    -4.1590 h1         1 RR9       0.065700
     55 H11        -61.9920    20.8960    -4.2110 h1         1 RR9       0.065700
     56 H9         -63.7820    21.3710    -6.2610 hn         1 RR9       0.518000
     57 H12        -64.6540    23.2830    -4.1970 hn         1 RR9       0.336500
     58 H19        -59.2790    25.7290    -5.3370 hn         1 RR9       0.509000
     59 O2         -57.6300    24.1940    -3.2160 oh         1 RR9      -0.668000
     60 C8         -62.9830    21.3450    -4.3020 c3         1 RR9       0.263000
     61 H15        -63.6640    24.1390     1.3870 ha         1 RR9       0.120000
@<TRIPOS>BOND
     1     1     4 1   
     2     1    32 1   
     3     1    33 1   
     4     1    34 1   
     5     2     4 1   
     6     2     7 1   
     7     2     8 1   
     8     3    18 2   
     9     4     6 1   
    10     4    35 1   
    11     5     7 2   
    12     5    25 1   
    13     6    37 1   
    14     6    38 1   
    15     6    39 1   
    16     7    40 1   
    17     8    25 ar  
    18     8    31 ar  
    19     9    25 ar  
    20     9    26 1   
    21     9    29 ar  
    22    10    11 2   
    23    10    27 1   
    24    10    60 1   
    25    11    12 1   
    26    11    41 1   
    27    12    13 2   
    28    12    42 1   
    29    13    18 1   
    30    13    22 1   
    31    14    15 ar  
    32    14    22 ar  
    33    14    61 1   
    34    15    16 ar  
    35    15    43 1   
    36    16    17 ar  
    37    16    44 1   
    38    17    28 ar  
    39    17    45 1   
    40    18    27 1   
    41    19    24 1   
    42    19    46 1   
    43    19    47 1   
    44    19    59 1   
    45    20    21 1   
    46    20    24 1   
    47    20    48 1   
    48    20    49 1   
    49    21    50 1   
    50    21    51 1   
    51    21    52 1   
    52    22    28 ar  
    53    23    29 ar  
    54    23    30 1   
    55    23    31 ar  
    56    24    30 1   
    57    24    53 1   
    58    26    56 1   
    59    26    60 1   
    60    27    57 1   
    61    30    58 1   
    62    36    59 1   
    63    54    60 1   
    64    55    60 1   
@<TRIPOS>SUBSTRUCTURE
     1 RR9         1 TEMP              0 ****  ****    0 ROOT
