@<TRIPOS>MOLECULE
RR9
   61    64     1     0     0
SMALL
No Charge or Current Charge


@<TRIPOS>ATOM
      1 C1         -59.8020    24.2100   -11.1480 c3         1 RR9      -0.106100
      2 N1         -61.5980    24.2080    -9.4200 na         1 RR9      -0.296300
      3 O1         -65.0460    25.2490    -2.3010 o          1 RR9      -0.542000
      4 C2         -60.7740    25.0560   -10.2990 c3         1 RR9       0.092300
      5 N2         -63.1090    22.6360    -8.6890 nc         1 RR9      -0.552100
      6 C3         -61.6490    25.9770   -11.1740 c3         1 RR9      -0.106100
      7 C4         -62.5320    23.2130    -9.7600 cd         1 RR9       0.400700
      8 C5         -61.5940    24.2540    -8.0500 ca         1 RR9       0.174500
      9 C7         -62.6910    23.1470    -6.2450 ca         1 RR9       0.460900
     10 C9         -63.3550    22.2760    -3.2400 cc         1 RR9       0.097400
     11 C10        -62.4870    22.0650    -2.1860 cd         1 RR9      -0.314000
     12 C11        -62.4590    22.9990    -1.0900 cd         1 RR9      -0.072000
     13 C12        -63.3090    24.0930    -1.1370 cc         1 RR9      -0.289000
     14 C14        -63.5670    24.6210     1.2720 ca         1 RR9      -0.160000
     15 C15        -63.4380    25.5280     2.3350 ca         1 RR9      -0.074000
     16 C16        -62.9400    26.8090     2.0480 ca         1 RR9      -0.167000
     17 C17        -62.5930    27.1270     0.7240 ca         1 RR9       0.340900
     18 C18        -64.2620    24.3150    -2.2360 c          1 RR9       0.566200
     19 C21        -59.6670    24.3930    -2.9280 c3         1 RR9       0.148600
     20 C22        -60.1550    26.9370    -2.9170 c3         1 RR9      -0.088400
     21 C23        -61.1470    28.0710    -3.2640 c3         1 RR9      -0.099100
     22 C13        -63.2040    25.0210    -0.0280 ca         1 RR9       0.424800
     23 C19        -61.1550    24.7950    -5.8810 ca         1 RR9       0.438900
     24 C20        -60.5420    25.5550    -3.5060 c3         1 RR9       0.250500
     25 C6         -62.5010    23.3110    -7.6310 ca         1 RR9      -0.137600
     26 N3         -63.5930    22.2090    -5.7510 nu         1 RR9      -0.939100
     27 N4         -64.2130    23.3590    -3.2110 ns         1 RR9      -0.350100
     28 N5         -62.7180    26.2530    -0.2990 nb         1 RR9      -0.645000
     29 N6         -62.0100    23.8960    -5.3670 nb         1 RR9      -0.345000
     30 N7         -60.4760    25.6020    -4.9880 nu         1 RR9      -0.915100
     31 N8         -60.9020    25.0190    -7.1840 nb         1 RR9      -0.288000
     32 H2         -59.1660    23.5930   -10.5020 hc         1 RR9       0.047033
     33 H3         -60.3480    23.5470   -11.8290 hc         1 RR9       0.047033
     34 H1         -59.1500    24.8570   -11.7470 hc         1 RR9       0.047033
     35 H4         -60.1610    25.7070    -9.6600 h1         1 RR9       0.089700
     36 H23        -57.8090    23.7420    -2.9110 ho         1 RR9       0.439000
     37 H6         -62.3030    26.5940   -10.5470 hc         1 RR9       0.047033
     38 H7         -61.0230    26.6470   -11.7750 hc         1 RR9       0.047033
     39 H5         -62.2780    25.3910   -11.8560 hc         1 RR9       0.047033
     40 H8         -62.7350    22.9680   -10.7960 h5         1 RR9       0.064800
     41 H13        -61.8130    21.2120    -2.1950 ha         1 RR9       0.196000
     42 H14        -61.7680    22.8560    -0.2600 ha         1 RR9       0.183000
     43 H16        -63.7140    25.2480     3.3490 ha         1 RR9       0.117000
     44 H17        -62.8200    27.5480     2.8350 ha         1 RR9       0.122000
     45 H18        -62.2020    28.1130     0.4740 h4         1 RR9       0.020100
     46 H21        -59.8090    24.3590    -1.8390 h1         1 RR9       0.029700
     47 H22        -60.0380    23.4400    -3.3290 h1         1 RR9       0.029700
     48 H25        -59.1500    27.2190    -3.2540 hc         1 RR9       0.050200
     49 H24        -60.1060    26.8500    -1.8250 hc         1 RR9       0.050200
     50 H27        -60.8460    29.0040    -2.7730 hc         1 RR9       0.042033
     51 H28        -61.1790    28.2510    -4.3450 hc         1 RR9       0.042033
     52 H26        -62.1590    27.8170    -2.9260 hc         1 RR9       0.042033
     53 H20        -61.5780    25.3620    -3.1920 h1         1 RR9       0.082700
     54 H10        -64.2960    20.7360    -4.3860 h1         1 RR9       0.065700
     55 H11        -62.5400    20.8000    -4.5620 h1         1 RR9       0.065700
     56 H9         -64.0690    21.7310    -6.5190 hn         1 RR9       0.518000
     57 H12        -64.8150    23.5130    -4.0080 hn         1 RR9       0.336500
     58 H19        -59.7350    26.1640    -5.3990 hn         1 RR9       0.509000
     59 O2         -58.2650    24.5480    -3.2380 oh         1 RR9      -0.668000
     60 C8         -63.4440    21.4210    -4.4980 c3         1 RR9       0.263000
     61 H15        -63.9470    23.6180     1.4460 ha         1 RR9       0.120000
@<TRIPOS>BOND
     1     1     4 1   
     2     1    32 1   
     3     1    33 1   
     4     1    34 1   
     5     2     4 1   
     6     2     7 1   
     7     2     8 1   
     8     3    18 2   
     9     4     6 1   
    10     4    35 1   
    11     5     7 2   
    12     5    25 1   
    13     6    37 1   
    14     6    38 1   
    15     6    39 1   
    16     7    40 1   
    17     8    25 ar  
    18     8    31 ar  
    19     9    25 ar  
    20     9    26 1   
    21     9    29 ar  
    22    10    11 2   
    23    10    27 1   
    24    10    60 1   
    25    11    12 1   
    26    11    41 1   
    27    12    13 2   
    28    12    42 1   
    29    13    18 1   
    30    13    22 1   
    31    14    15 ar  
    32    14    22 ar  
    33    14    61 1   
    34    15    16 ar  
    35    15    43 1   
    36    16    17 ar  
    37    16    44 1   
    38    17    28 ar  
    39    17    45 1   
    40    18    27 1   
    41    19    24 1   
    42    19    46 1   
    43    19    47 1   
    44    19    59 1   
    45    20    21 1   
    46    20    24 1   
    47    20    48 1   
    48    20    49 1   
    49    21    50 1   
    50    21    51 1   
    51    21    52 1   
    52    22    28 ar  
    53    23    29 ar  
    54    23    30 1   
    55    23    31 ar  
    56    24    30 1   
    57    24    53 1   
    58    26    56 1   
    59    26    60 1   
    60    27    57 1   
    61    30    58 1   
    62    36    59 1   
    63    54    60 1   
    64    55    60 1   
@<TRIPOS>SUBSTRUCTURE
     1 RR9         1 TEMP              0 ****  ****    0 ROOT
