@<TRIPOS>MOLECULE
RRA
    9     8     1     0     0
SMALL
No Charge or Current Charge


@<TRIPOS>ATOM
      1 N03         -1.5040     0.5090     0.1570 n8         1 RRA      -0.984200
      2 C37         -0.5870    -0.6310    -0.0050 c3         1 RRA       0.232900
      3 C38          0.7960    -0.1430     0.0320 c1         1 RRA      -0.146100
      4 C39          1.9450     0.2400     0.0420 c1         1 RRA      -0.235000
      5 HN03        -1.3640     1.1490    -0.6330 hn         1 RRA       0.395500
      6 HN0A        -2.4680     0.1750     0.0320 hn         1 RRA       0.395500
      7 H37         -0.7500    -1.3540     0.8070 h1         1 RRA       0.043700
      8 H37A        -0.7790    -1.1250    -0.9680 h1         1 RRA       0.043700
      9 H39          2.9580     0.5900     0.0570 ha         1 RRA       0.254000
@<TRIPOS>BOND
     1     1     2 1   
     2     1     5 1   
     3     1     6 1   
     4     2     3 1   
     5     2     7 1   
     6     2     8 1   
     7     3     4 3   
     8     4     9 1   
@<TRIPOS>SUBSTRUCTURE
     1 RRA         1 TEMP              0 ****  ****    0 ROOT
