@<TRIPOS>MOLECULE
RRA
    9     8     1     0     0
SMALL
abcg2


@<TRIPOS>ATOM
      1 N03         -1.5010     0.5300     0.1300 n8         1 RRA      -0.984200
      2 C37         -0.5860    -0.5890    -0.0440 c3         1 RRA       0.232900
      3 C38          0.8060    -0.1450     0.0180 c1         1 RRA      -0.146100
      4 C39          1.9490     0.2250     0.0600 c1         1 RRA      -0.235000
      5 HN03        -1.4610     1.1220    -0.6900 hn         1 RRA       0.395500
      6 HN0A        -2.4450     0.1670     0.1600 hn         1 RRA       0.395500
      7 H37         -0.7540    -1.3050     0.7640 h1         1 RRA       0.043700
      8 H37A        -0.7250    -1.1470    -0.9780 h1         1 RRA       0.043700
      9 H39          2.9630     0.5520     0.1020 ha         1 RRA       0.254000
@<TRIPOS>BOND
     1     1     2 1   
     2     1     5 1   
     3     1     6 1   
     4     2     3 1   
     5     2     7 1   
     6     2     8 1   
     7     3     4 3   
     8     4     9 1   
@<TRIPOS>SUBSTRUCTURE
     1 RRA         1 TEMP              0 ****  ****    0 ROOT
