@<TRIPOS>MOLECULE
RRB
   64    67     1     0     0
SMALL
bcc


@<TRIPOS>ATOM
      1 C1         -29.3280     9.6750    -4.6290 ca         1 RRB      -0.165000
      2 C2         -28.3040    10.1860    -5.4460 ca         1 RRB      -0.075300
      3 C3         -27.9910     9.5700    -6.6400 ca         1 RRB      -0.092000
      4 C4         -28.6890     8.4080    -6.9770 ca         1 RRB       0.094400
      5 C5         -29.6790     7.8850    -6.1340 ca         1 RRB      -0.102200
      6 C6         -30.0520     8.5320    -4.9430 ca         1 RRB       0.126600
      7 N6         -31.0470     8.0400    -4.1040 nv         1 RRB      -0.808200
      8 N          -35.2290     2.5460   -13.9550 n8         1 RRB      -0.871800
      9 CA         -34.8670     2.6810   -12.5680 c3         1 RRB       0.099500
     10 C          -33.3740     2.9340   -12.4580 c          1 RRB       0.686100
     11 O          -32.5560     2.6290   -13.2870 o          1 RRB      -0.493100
     12 CB         -35.1750     1.3770   -11.8020 c3         1 RRB      -0.019100
     13 C04        -36.6410     1.0490   -11.8150 ca         1 RRB      -0.137300
     14 C05        -37.5180     1.6690   -10.9290 ca         1 RRB      -0.083500
     15 C06        -38.8770     1.3960   -10.9470 ca         1 RRB      -0.193000
     16 C07        -39.3920     0.4850   -11.8670 ca         1 RRB       0.146100
     17 C09        -38.5290    -0.1430   -12.7610 ca         1 RRB      -0.193000
     18 C7         -31.0970     5.7800    -6.3200 c5         1 RRB       0.241800
     19 C10        -37.1730     0.1410   -12.7280 ca         1 RRB      -0.083500
     20 C9         -32.4770     5.9850    -6.9540 c5         1 RRB       0.110100
     21 C2M        -27.5530    11.4100    -5.0010 c3         1 RRB       0.187700
     22 C11        -33.0750     4.5880    -6.8270 c5         1 RRB       0.118100
     23 C12        -31.8340     3.6990    -7.0310 c5         1 RRB       0.108100
     24 C13        -31.6590     3.1140    -8.4110 c3         1 RRB       0.168400
     25 C8         -29.3980     6.6440    -7.9240 cc         1 RRB       0.434700
     26 N3S        -33.0180     3.5140   -11.2500 ns         1 RRB      -0.691300
     27 N7         -30.1060     6.7310    -6.7670 na         1 RRB      -0.165300
     28 N9         -28.5450     7.6110    -8.0870 nd         1 RRB      -0.577100
     29 O08        -40.7030     0.1760   -11.9300 oh         1 RRB      -0.490100
     30 O1S        -31.0650     5.1590   -11.4950 o          1 RRB      -0.590300
     31 O2         -33.2150     6.9790    -6.3080 oh         1 RRB      -0.568800
     32 O2S        -30.6220     2.7290   -11.1060 o          1 RRB      -0.590300
     33 O3         -33.5950     4.4650    -5.5320 oh         1 RRB      -0.560800
     34 O4         -30.6980     4.4940    -6.6980 os         1 RRB      -0.389600
     35 O5         -31.6050     4.2070    -9.3550 os         1 RRB      -0.573500
     36 OM2        -28.4690    12.4210    -4.6380 oh         1 RRB      -0.595800
     37 S          -31.4300     3.9010   -10.9020 s6         1 RRB       1.572100
     38 H1         -29.5830    10.1990    -3.7150 ha         1 RRB       0.136000
     39 H2         -27.2290     9.9690    -7.2990 ha         1 RRB       0.148000
     40 H3         -31.2490     8.6650    -3.3370 hn         1 RRB       0.384300
     41 H4         -31.9100     7.8070    -4.5790 hn         1 RRB       0.384300
     42 H6         -35.1280     3.4320   -14.4330 hn         1 RRB       0.355800
     43 H8         -35.3900     3.5020   -12.0510 h1         1 RRB       0.022700
     44 H9         -34.6030     0.5650   -12.2560 hc         1 RRB       0.062700
     45 H10        -34.8270     1.4780   -10.7710 hc         1 RRB       0.062700
     46 H11        -37.1360     2.3780   -10.2040 ha         1 RRB       0.133000
     47 H12        -39.5350     1.8900   -10.2400 ha         1 RRB       0.142500
     48 H13        -38.9220    -0.8560   -13.4760 ha         1 RRB       0.142500
     49 H14        -31.1610     5.8670    -5.2310 h2         1 RRB       0.113700
     50 H15        -36.5150    -0.3620   -13.4260 ha         1 RRB       0.133000
     51 H16        -32.3440     6.2130    -8.0170 h1         1 RRB       0.070700
     52 H17        -26.9090    11.1460    -4.1530 h1         1 RRB       0.025700
     53 H18        -26.8870    11.7370    -5.8090 h1         1 RRB       0.025700
     54 H19        -33.8400     4.3950    -7.5880 h1         1 RRB       0.049700
     55 H20        -31.8830     2.8390    -6.3540 h1         1 RRB       0.077700
     56 H21        -32.4990     2.4540    -8.6350 h1         1 RRB       0.070200
     57 H22        -30.7340     2.5380    -8.4620 h1         1 RRB       0.070200
     58 H23        -29.5380     5.8290    -8.6170 h5         1 RRB       0.068800
     59 H24        -33.7220     4.0350   -10.7390 hn         1 RRB       0.331500
     60 H25        -41.1940     0.6510   -11.2500 ho         1 RRB       0.428000
     61 H26        -33.2800     7.7440    -6.8860 ho         1 RRB       0.418000
     62 H27        -34.0160     3.6030    -5.4510 ho         1 RRB       0.405000
     63 H28        -27.9860    13.1000    -4.1570 ho         1 RRB       0.401000
     64 H5         -36.2110     2.3080   -14.0170 hn         1 RRB       0.355800
@<TRIPOS>BOND
     1     1     2 ar  
     2     1     6 ar  
     3     1    38 1   
     4     2     3 ar  
     5     2    21 1   
     6     3     4 ar  
     7     3    39 1   
     8     4     5 ar  
     9     4    28 1   
    10     5     6 ar  
    11     5    27 1   
    12     6     7 1   
    13     7    40 1   
    14     7    41 1   
    15     8     9 1   
    16     8    42 1   
    17     8    64 1   
    18     9    10 1   
    19     9    12 1   
    20     9    43 1   
    21    10    11 2   
    22    10    26 1   
    23    12    13 1   
    24    12    44 1   
    25    12    45 1   
    26    13    14 ar  
    27    13    19 ar  
    28    14    15 ar  
    29    14    46 1   
    30    15    16 ar  
    31    15    47 1   
    32    16    17 ar  
    33    16    29 1   
    34    17    19 ar  
    35    17    48 1   
    36    18    20 1   
    37    18    27 1   
    38    18    34 1   
    39    18    49 1   
    40    19    50 1   
    41    20    22 1   
    42    20    31 1   
    43    20    51 1   
    44    21    36 1   
    45    21    52 1   
    46    21    53 1   
    47    22    23 1   
    48    22    33 1   
    49    22    54 1   
    50    23    24 1   
    51    23    34 1   
    52    23    55 1   
    53    24    35 1   
    54    24    56 1   
    55    24    57 1   
    56    25    27 1   
    57    25    28 2   
    58    25    58 1   
    59    26    37 1   
    60    26    59 1   
    61    29    60 1   
    62    30    37 2   
    63    31    61 1   
    64    32    37 2   
    65    33    62 1   
    66    35    37 1   
    67    36    63 1   
@<TRIPOS>SUBSTRUCTURE
     1 RRB         1 TEMP              0 ****  ****    0 ROOT
