@<TRIPOS>MOLECULE
RRB
   64    67     1     0     0
SMALL
No Charge or Current Charge


@<TRIPOS>ATOM
      1 C1         -30.0980     9.9710    -5.4390 ca         1 RRB      -0.147000
      2 C2         -29.0620    10.4110    -6.3000 ca         1 RRB      -0.075300
      3 C3         -28.4770     9.5000    -7.2070 ca         1 RRB      -0.074000
      4 C4         -28.9230     8.1720    -7.2120 ca         1 RRB       0.094400
      5 C5         -29.9010     7.7480    -6.3540 ca         1 RRB      -0.102200
      6 C6         -30.5430     8.6350    -5.4650 ca         1 RRB       0.265000
      7 N6         -31.5960     8.2570    -4.6740 nv         1 RRB      -1.057000
      8 N          -35.0050     3.9910   -12.9360 n8         1 RRB      -0.982200
      9 CA         -34.5230     2.8970   -12.0270 c3         1 RRB       0.099500
     10 C          -32.9620     2.7690   -11.8790 c          1 RRB       0.619100
     11 O          -32.2430     2.3400   -12.7700 o          1 RRB      -0.493100
     12 CB         -35.1590     1.5370   -12.4190 c3         1 RRB      -0.019100
     13 C04        -36.6870     1.5560   -12.4050 ca         1 RRB      -0.137300
     14 C05        -37.3830     1.5950   -11.1800 ca         1 RRB      -0.065500
     15 C06        -38.7900     1.6090   -11.1640 ca         1 RRB      -0.175000
     16 C07        -39.5060     1.5830   -12.3710 ca         1 RRB       0.146100
     17 C09        -38.8190     1.5420   -13.5920 ca         1 RRB      -0.175000
     18 C7         -30.9190     5.4400    -5.8890 c5         1 RRB       0.294300
     19 C10        -37.4140     1.5280   -13.6130 ca         1 RRB      -0.065500
     20 C9         -32.3660     5.2350    -6.4490 c5         1 RRB       0.133300
     21 C2M        -28.5950    11.8610    -6.2640 c3         1 RRB       0.210900
     22 C11        -32.6460     3.7610    -6.0330 c5         1 RRB       0.141300
     23 C12        -31.2350     3.1120    -6.2390 c5         1 RRB       0.131300
     24 C13        -30.9380     2.5690    -7.6690 c3         1 RRB       0.191600
     25 C8         -29.2250     6.0880    -7.6640 cc         1 RRB       0.434700
     26 N3S        -32.4690     3.1700   -10.6790 ns         1 RRB      -0.624300
     27 N7         -30.0670     6.4020    -6.5930 na         1 RRB      -0.194600
     28 N9         -28.4860     7.1500    -8.0440 nd         1 RRB      -0.577100
     29 O08        -40.8680     1.5970   -12.3630 oh         1 RRB      -0.529100
     30 O1S        -30.2340     4.3220   -10.9030 o          1 RRB      -0.519500
     31 O2         -33.3450     6.0940    -5.8460 oh         1 RRB      -0.691000
     32 O2S        -30.3390     1.8400   -10.3110 o          1 RRB      -0.519500
     33 O3         -33.0890     3.7120    -4.6610 oh         1 RRB      -0.683000
     34 O4         -30.2780     4.1380    -5.8640 os         1 RRB      -0.436000
     35 O5         -31.1260     3.6060    -8.6510 os         1 RRB      -0.596700
     36 OM2        -29.3370    12.6450    -7.2040 oh         1 RRB      -0.658000
     37 S          -30.8810     3.1980   -10.2220 s6         1 RRB       1.430500
     38 H1         -30.5670    10.6800    -4.7610 ha         1 RRB       0.118000
     39 H2         -27.6970     9.8190    -7.8940 ha         1 RRB       0.130000
     40 H3         -32.0770     8.9840    -4.1480 hn         1 RRB       0.439500
     41 H4         -32.2010     7.5120    -5.0260 hn         1 RRB       0.439500
     42 H6         -34.7890     4.9070   -12.5220 hn         1 RRB       0.411000
     43 H8         -34.9090     3.1440   -11.0280 h1         1 RRB       0.022700
     44 H9         -34.7880     1.2400   -13.4080 hc         1 RRB       0.062700
     45 H10        -34.8010     0.7680   -11.7230 hc         1 RRB       0.062700
     46 H11        -36.8350     1.6120   -10.2400 ha         1 RRB       0.115000
     47 H12        -39.3130     1.6400   -10.2110 ha         1 RRB       0.124500
     48 H13        -39.3750     1.5220   -14.5260 ha         1 RRB       0.124500
     49 H14        -30.9830     5.7930    -4.8530 h2         1 RRB       0.113700
     50 H15        -36.8910     1.4970   -14.5670 ha         1 RRB       0.115000
     51 H16        -32.3770     5.3540    -7.5410 h1         1 RRB       0.070700
     52 H17        -28.7250    12.2590    -5.2490 h1         1 RRB       0.025700
     53 H18        -27.5220    11.9010    -6.4970 h1         1 RRB       0.025700
     54 H19        -33.3960     3.3000    -6.6910 h1         1 RRB       0.049700
     55 H20        -31.1050     2.2650    -5.5530 h1         1 RRB       0.077700
     56 H21        -31.6100     1.7210    -7.8620 h1         1 RRB       0.070200
     57 H22        -29.9070     2.1910    -7.6860 h1         1 RRB       0.070200
     58 H23        -29.1540     5.0880    -8.0730 h5         1 RRB       0.068800
     59 H24        -33.0690     3.5600    -9.9750 hn         1 RRB       0.331500
     60 H25        -41.1730     1.6240   -11.4310 ho         1 RRB       0.467000
     61 H26        -33.7210     5.5270    -5.1230 ho         1 RRB       0.517000
     62 H27        -33.2680     2.7680    -4.4390 ho         1 RRB       0.504000
     63 H28        -28.9960    13.5640    -7.1340 ho         1 RRB       0.440000
     64 H5         -36.0320     3.9710   -12.9570 hn         1 RRB       0.411000
@<TRIPOS>BOND
     1     1     2 ar  
     2     1     6 ar  
     3     1    38 1   
     4     2     3 ar  
     5     2    21 1   
     6     3     4 ar  
     7     3    39 1   
     8     4     5 ar  
     9     4    28 1   
    10     5     6 ar  
    11     5    27 1   
    12     6     7 1   
    13     7    40 1   
    14     7    41 1   
    15     8     9 1   
    16     8    42 1   
    17     8    64 1   
    18     9    10 1   
    19     9    12 1   
    20     9    43 1   
    21    10    11 2   
    22    10    26 1   
    23    12    13 1   
    24    12    44 1   
    25    12    45 1   
    26    13    14 ar  
    27    13    19 ar  
    28    14    15 ar  
    29    14    46 1   
    30    15    16 ar  
    31    15    47 1   
    32    16    17 ar  
    33    16    29 1   
    34    17    19 ar  
    35    17    48 1   
    36    18    20 1   
    37    18    27 1   
    38    18    34 1   
    39    18    49 1   
    40    19    50 1   
    41    20    22 1   
    42    20    31 1   
    43    20    51 1   
    44    21    36 1   
    45    21    52 1   
    46    21    53 1   
    47    22    23 1   
    48    22    33 1   
    49    22    54 1   
    50    23    24 1   
    51    23    34 1   
    52    23    55 1   
    53    24    35 1   
    54    24    56 1   
    55    24    57 1   
    56    25    27 1   
    57    25    28 2   
    58    25    58 1   
    59    26    37 1   
    60    26    59 1   
    61    29    60 1   
    62    30    37 2   
    63    31    61 1   
    64    32    37 2   
    65    33    62 1   
    66    35    37 1   
    67    36    63 1   
@<TRIPOS>SUBSTRUCTURE
     1 RRB         1 TEMP              0 ****  ****    0 ROOT
