@<TRIPOS>MOLECULE
RRC
   52    54     1     0     0
SMALL
abcg2


@<TRIPOS>ATOM
      1 OAP          3.9640    -1.9810    -1.7420 oh         1 RRC      -0.664000
      2 CAQ          3.6490    -1.2660    -0.5690 c3         1 RRC       0.131600
      3 CAR          3.3690     0.1890    -0.9210 c3         1 RRC       0.252500
      4 CAK          4.5820     0.8870    -1.5340 c3         1 RRC      -0.083400
      5 CAI          4.3770     2.3810    -1.7440 c3         1 RRC      -0.088100
      6 NAS          2.2320     0.3310    -1.8060 nu         1 RRC      -0.912100
      7 CAT          0.9400     0.1870    -1.4280 ca         1 RRC       0.437900
      8 NAU          0.0360     0.1670    -2.4100 nb         1 RRC      -0.298000
      9 CAV         -1.2040     0.0520    -1.9470 ca         1 RRC       0.169500
     10 NAW         -2.3630    -0.0030    -2.6620 na         1 RRC      -0.287300
     11 CAZ         -2.4900     0.0310    -4.1160 c3         1 RRC       0.092300
     12 CAY         -2.9620    -1.3160    -4.6440 c3         1 RRC      -0.106100
     13 CBA         -3.3910     1.1760    -4.5560 c3         1 RRC      -0.106100
     14 CAX         -3.3730    -0.1360    -1.7460 cc         1 RRC       0.386700
     15 CAN         -1.5920    -0.0460    -0.6190 ca         1 RRC      -0.144600
     16 NAO         -2.9560    -0.1640    -0.5140 nd         1 RRC      -0.545100
     17 NAL          0.7040     0.0910    -0.1090 nb         1 RRC      -0.361000
     18 CAM         -0.5460    -0.0260     0.3240 ca         1 RRC       0.473900
     19 NAJ         -0.7770    -0.1190     1.6430 nu         1 RRC      -0.912100
     20 CAD          0.2820    -0.2740     2.6190 c3         1 RRC       0.276100
     21 CAE         -0.2710    -0.0990     4.0070 ca         1 RRC      -0.116300
     22 CAG         -0.4900    -1.1990     4.8290 ca         1 RRC      -0.092000
     23 CAH         -1.0180    -1.0360     6.1040 ca         1 RRC      -0.114000
     24 CAF         -1.3360     0.2330     6.5670 ca         1 RRC      -0.100000
     25 CAC         -1.1230     1.3380     5.7510 ca         1 RRC      -0.114000
     26 CAB         -0.5960     1.1710     4.4790 ca         1 RRC      -0.092000
     27 HAP          4.0420    -2.9110    -1.5130 ho         1 RRC       0.442000
     28 HAQ1         4.4710    -1.2940     0.1600 h1         1 RRC       0.030700
     29 HAQ2         2.7650    -1.6800    -0.0690 h1         1 RRC       0.030700
     30 HAR          3.1260     0.6900     0.0190 h1         1 RRC       0.077700
     31 HAK1         4.8490     0.4090    -2.4800 hc         1 RRC       0.049700
     32 HAK2         5.4290     0.7290    -0.8620 hc         1 RRC       0.049700
     33 HAI1         5.2920     2.8520    -2.1070 hc         1 RRC       0.035367
     34 HAI2         3.5920     2.5860    -2.4730 hc         1 RRC       0.035367
     35 HAI3         4.0990     2.8770    -0.8120 hc         1 RRC       0.035367
     36 HAS          2.3980     0.2510    -2.7960 hn         1 RRC       0.504000
     37 HAZ         -1.4800     0.2220    -4.4830 h1         1 RRC       0.089700
     38 HAY1        -2.9780    -1.3050    -5.7340 hc         1 RRC       0.045533
     39 HAY2        -2.2990    -2.1200    -4.3240 hc         1 RRC       0.045533
     40 HAY3        -3.9720    -1.5450    -4.2980 hc         1 RRC       0.045533
     41 HBA1        -4.4260     1.0200    -4.2440 hc         1 RRC       0.045533
     42 HBA2        -3.0490     2.1270    -4.1490 hc         1 RRC       0.045533
     43 HBA3        -3.3840     1.2520    -5.6430 hc         1 RRC       0.045533
     44 HAX         -4.4060    -0.2070    -2.0510 h5         1 RRC       0.061800
     45 HAJ         -1.7140    -0.3570     1.9270 hn         1 RRC       0.513000
     46 HAD1         0.7610    -1.2550     2.5270 h1         1 RRC       0.056200
     47 HAD2         1.0520     0.4710     2.4220 h1         1 RRC       0.056200
     48 HAG         -0.2450    -2.1920     4.4710 ha         1 RRC       0.116000
     49 HAH         -1.1810    -1.9020     6.7340 ha         1 RRC       0.114500
     50 HAF         -1.7470     0.3630     7.5600 ha         1 RRC       0.113000
     51 HAC         -1.3640     2.3300     6.1090 ha         1 RRC       0.114500
     52 HAB         -0.4300     2.0370     3.8480 ha         1 RRC       0.116000
@<TRIPOS>BOND
     1     1     2 1   
     2     1    27 1   
     3     2     3 1   
     4     2    28 1   
     5     2    29 1   
     6     3     4 1   
     7     3     6 1   
     8     3    30 1   
     9     4     5 1   
    10     4    31 1   
    11     4    32 1   
    12     5    33 1   
    13     5    34 1   
    14     5    35 1   
    15     6     7 1   
    16     6    36 1   
    17     7     8 ar  
    18     7    17 ar  
    19     8     9 ar  
    20     9    10 1   
    21     9    15 ar  
    22    10    11 1   
    23    10    14 1   
    24    11    12 1   
    25    11    13 1   
    26    11    37 1   
    27    12    38 1   
    28    12    39 1   
    29    12    40 1   
    30    13    41 1   
    31    13    42 1   
    32    13    43 1   
    33    14    16 2   
    34    14    44 1   
    35    15    16 1   
    36    15    18 ar  
    37    17    18 ar  
    38    18    19 1   
    39    19    20 1   
    40    19    45 1   
    41    20    21 1   
    42    20    46 1   
    43    20    47 1   
    44    21    22 ar  
    45    21    26 ar  
    46    22    23 ar  
    47    22    48 1   
    48    23    24 ar  
    49    23    49 1   
    50    24    25 ar  
    51    24    50 1   
    52    25    26 ar  
    53    25    51 1   
    54    26    52 1   
@<TRIPOS>SUBSTRUCTURE
     1 RRC         1 TEMP              0 ****  ****    0 ROOT
