@<TRIPOS>MOLECULE
RRC
   52    54     1     0     0
SMALL
No Charge or Current Charge


@<TRIPOS>ATOM
      1 OAP          4.0770    -2.0990    -2.1430 oh         1 RRC      -0.664000
      2 CAQ          3.8880    -1.4020    -0.8920 c3         1 RRC       0.131600
      3 CAR          3.5720     0.1170    -1.0980 c3         1 RRC       0.252500
      4 CAK          4.7370     0.8760    -1.7880 c3         1 RRC      -0.083400
      5 CAI          4.5700     2.4120    -1.8040 c3         1 RRC      -0.088100
      6 NAS          2.3260     0.2970    -1.8750 nu         1 RRC      -0.912100
      7 CAT          1.0300     0.1980    -1.4070 ca         1 RRC       0.437900
      8 NAU          0.0850     0.1220    -2.3630 nb         1 RRC      -0.298000
      9 CAV         -1.1810     0.0260    -1.9170 ca         1 RRC       0.169500
     10 NAW         -2.3870    -0.0700    -2.5530 na         1 RRC      -0.287300
     11 CAZ         -2.5270    -0.0860    -4.0210 c3         1 RRC       0.092300
     12 CAY         -3.1320    -1.4160    -4.5150 c3         1 RRC      -0.106100
     13 CBA         -3.3310     1.1320    -4.5230 c3         1 RRC      -0.106100
     14 CAX         -3.3920    -0.1450    -1.5850 cc         1 RRC       0.386700
     15 CAN         -1.4890     0.0060    -0.5800 ca         1 RRC      -0.144600
     16 NAO         -2.8680    -0.1000    -0.3450 nd         1 RRC      -0.545100
     17 NAL          0.8450     0.1890    -0.0730 nb         1 RRC      -0.361000
     18 CAM         -0.4290     0.0920     0.3440 ca         1 RRC       0.473900
     19 NAJ         -0.6710     0.0770     1.7080 nu         1 RRC      -0.912100
     20 CAD          0.3070     0.1590     2.7960 c3         1 RRC       0.276100
     21 CAE         -0.4120     0.1050     4.1370 ca         1 RRC      -0.116300
     22 CAG         -0.6530    -1.1330     4.7660 ca         1 RRC      -0.092000
     23 CAH         -1.3170    -1.1810     6.0050 ca         1 RRC      -0.114000
     24 CAF         -1.7450     0.0060     6.6210 ca         1 RRC      -0.100000
     25 CAC         -1.5090     1.2440     5.9980 ca         1 RRC      -0.114000
     26 CAB         -0.8450     1.2930     4.7600 ca         1 RRC      -0.092000
     27 HAP          4.2060    -3.0490    -1.9270 ho         1 RRC       0.442000
     28 HAQ1         4.7900    -1.4920    -0.2710 h1         1 RRC       0.030700
     29 HAQ2         3.0620    -1.8580    -0.3300 h1         1 RRC       0.030700
     30 HAR          3.4540     0.5630    -0.1000 h1         1 RRC       0.077700
     31 HAK1         4.8600     0.5150    -2.8160 hc         1 RRC       0.049700
     32 HAK2         5.6700     0.6400    -1.2610 hc         1 RRC       0.049700
     33 HAI1         5.4470     2.8860    -2.2610 hc         1 RRC       0.035367
     34 HAI2         3.6850     2.7070    -2.3810 hc         1 RRC       0.035367
     35 HAI3         4.4640     2.8010    -0.7840 hc         1 RRC       0.035367
     36 HAS          2.4070     0.1450    -2.8780 hn         1 RRC       0.504000
     37 HAZ         -1.5220    -0.0080    -4.4590 h1         1 RRC       0.089700
     38 HAY1        -3.1690    -1.4400    -5.6110 hc         1 RRC       0.045533
     39 HAY2        -2.5220    -2.2630    -4.1780 hc         1 RRC       0.045533
     40 HAY3        -4.1510    -1.5520    -4.1340 hc         1 RRC       0.045533
     41 HBA1        -4.3600     1.1090    -4.1420 hc         1 RRC       0.045533
     42 HBA2        -2.8620     2.0650    -4.1910 hc         1 RRC       0.045533
     43 HBA3        -3.3710     1.1430    -5.6190 hc         1 RRC       0.045533
     44 HAX         -4.4420    -0.2270    -1.8390 h5         1 RRC       0.061800
     45 HAJ         -1.6560     0.0020     1.9570 hn         1 RRC       0.513000
     46 HAD1         1.0210    -0.6740     2.7290 h1         1 RRC       0.056200
     47 HAD2         0.8800     1.0940     2.7230 h1         1 RRC       0.056200
     48 HAG         -0.3260    -2.0570     4.2940 ha         1 RRC       0.116000
     49 HAH         -1.5000    -2.1400     6.4860 ha         1 RRC       0.114500
     50 HAF         -2.2580    -0.0320     7.5790 ha         1 RRC       0.113000
     51 HAC         -1.8410     2.1640     6.4740 ha         1 RRC       0.114500
     52 HAB         -0.6690     2.2550     4.2820 ha         1 RRC       0.116000
@<TRIPOS>BOND
     1     1     2 1   
     2     1    27 1   
     3     2     3 1   
     4     2    28 1   
     5     2    29 1   
     6     3     4 1   
     7     3     6 1   
     8     3    30 1   
     9     4     5 1   
    10     4    31 1   
    11     4    32 1   
    12     5    33 1   
    13     5    34 1   
    14     5    35 1   
    15     6     7 1   
    16     6    36 1   
    17     7     8 ar  
    18     7    17 ar  
    19     8     9 ar  
    20     9    10 1   
    21     9    15 ar  
    22    10    11 1   
    23    10    14 1   
    24    11    12 1   
    25    11    13 1   
    26    11    37 1   
    27    12    38 1   
    28    12    39 1   
    29    12    40 1   
    30    13    41 1   
    31    13    42 1   
    32    13    43 1   
    33    14    16 2   
    34    14    44 1   
    35    15    16 1   
    36    15    18 ar  
    37    17    18 ar  
    38    18    19 1   
    39    19    20 1   
    40    19    45 1   
    41    20    21 1   
    42    20    46 1   
    43    20    47 1   
    44    21    22 ar  
    45    21    26 ar  
    46    22    23 ar  
    47    22    48 1   
    48    23    24 ar  
    49    23    49 1   
    50    24    25 ar  
    51    24    50 1   
    52    25    26 ar  
    53    25    51 1   
    54    26    52 1   
@<TRIPOS>SUBSTRUCTURE
     1 RRC         1 TEMP              0 ****  ****    0 ROOT
