@<TRIPOS>MOLECULE
RRD
   54    58     1     0     0
SMALL
abcg2


@<TRIPOS>ATOM
      1 N1         -19.4620     8.1740    29.7170 ns         1 RRD      -0.485900
      2 N3         -16.8380     3.5430    25.5020 nb         1 RRD      -0.653000
      3 C4         -21.8090     6.3370    31.0730 c          1 RRD       0.575600
      4 C5         -21.8960     8.3920    29.8190 c3         1 RRD       0.019000
      5 C6         -20.4970     8.9990    29.9340 c          1 RRD       0.586100
      6 C7         -18.0700     8.5410    29.8120 cy         1 RRD       0.059700
      7 C8         -17.5710     9.2460    31.0900 cy         1 RRD       0.127100
      8 C10        -22.4480     6.2120    28.6950 c6         1 RRD       0.123000
      9 C13        -18.7730     4.6740    26.3710 ca         1 RRD      -0.092000
     10 C15        -16.2760     4.7080    25.2720 ca         1 RRD       0.368900
     11 C17        -16.2550     7.1830    25.2720 ca         1 RRD      -0.079000
     12 C20        -18.8430     7.1790    26.3600 ca         1 RRD      -0.100000
     13 C21        -18.1990     5.9460    26.1120 ca         1 RRD      -0.002000
     14 C22        -21.9740     4.1050    29.9230 ca         1 RRD      -0.044300
     15 C12        -20.3550     4.9170    28.2060 c          1 RRD       0.606100
     16 N2         -20.0750     4.5660    26.9340 ns         1 RRD      -0.158000
     17 C19        -18.2040     8.3570    26.0720 ca         1 RRD      -0.085000
     18 C18        -16.8990     8.3650    25.5310 ca         1 RRD      -0.108000
     19 C16        -16.8920     5.9510    25.5500 ca         1 RRD      -0.094000
     20 C14        -18.0770     3.5360    26.0550 ca         1 RRD       0.325900
     21 C11        -21.8280     4.8140    28.6030 c6         1 RRD      -0.111400
     22 C3         -21.9590     4.8540    31.1020 ca         1 RRD      -0.122600
     23 C2         -22.0560     4.2080    32.3330 ca         1 RRD      -0.042000
     24 C1         -22.1730     2.8290    32.4010 ca         1 RRD      -0.103000
     25 C23        -22.0820     2.7210    29.9800 ca         1 RRD      -0.106000
     26 C          -22.1830     2.1000    31.2170 ca         1 RRD       0.144000
     27 CL         -22.3280     0.3610    31.2850 cl         1 RRD      -0.195000
     28 N          -21.9700     6.9430    29.8690 n          1 RRD      -0.418800
     29 O1         -20.3900    10.2000    30.1840 o          1 RRD      -0.604100
     30 C9         -17.5520     9.7920    29.0750 cy         1 RRD       0.127100
     31 O2         -17.0270    10.3450    30.3120 oq         1 RRD      -0.453000
     32 H1         -19.6540     7.1970    29.5240 hn         1 RRD       0.349500
     33 H2         -22.3170     8.7270    28.8720 h1         1 RRD       0.079700
     34 H3         -22.4880     8.8320    30.6220 h1         1 RRD       0.079700
     35 H4         -17.5000     7.6490    29.5710 h1         1 RRD       0.076700
     36 H5         -18.3600     9.5760    31.7650 h1         1 RRD       0.060450
     37 H6         -16.7930     8.7190    31.6460 h1         1 RRD       0.060450
     38 H7         -22.1980     6.7920    27.8090 h1         1 RRD       0.055700
     39 H8         -23.5360     6.1090    28.7320 h1         1 RRD       0.055700
     40 H9         -15.2800     4.7030    24.8400 h4         1 RRD       0.025100
     41 H10        -15.2570     7.1730    24.8510 ha         1 RRD       0.122000
     42 H11        -19.8390     7.1910    26.7770 ha         1 RRD       0.114000
     43 H12        -20.8010     4.1470    26.3710 hn         1 RRD       0.160000
     44 H13        -18.7040     9.2970    26.2650 ha         1 RRD       0.122000
     45 H14        -16.4140     9.3090    25.3210 ha         1 RRD       0.123000
     46 H15        -18.5180     2.5650    26.2500 h4         1 RRD       0.024100
     47 H16        -22.3700     4.2660    27.8330 hc         1 RRD       0.072700
     48 H17        -22.0410     4.7960    33.2400 ha         1 RRD       0.148000
     49 H18        -22.2560     2.3240    33.3530 ha         1 RRD       0.140000
     50 H19        -22.0880     2.1350    29.0710 ha         1 RRD       0.129000
     51 H20        -16.7580     9.6090    28.3490 h1         1 RRD       0.060450
     52 H21        -18.3240    10.4250    28.6400 h1         1 RRD       0.060450
     53 O          -21.5340     6.9810    32.0880 o          1 RRD      -0.537000
     54 O3         -19.4990     5.3330    28.9840 o          1 RRD      -0.585100
@<TRIPOS>BOND
     1     1     5 1   
     2     1     6 1   
     3     1    32 1   
     4     2    10 ar  
     5     2    20 ar  
     6     3    22 1   
     7     3    28 1   
     8     3    53 2   
     9     4     5 1   
    10     4    28 1   
    11     4    33 1   
    12     4    34 1   
    13     5    29 2   
    14     6     7 1   
    15     6    30 1   
    16     6    35 1   
    17     7    31 1   
    18     7    36 1   
    19     7    37 1   
    20     8    21 1   
    21     8    28 1   
    22     8    38 1   
    23     8    39 1   
    24     9    13 ar  
    25     9    16 1   
    26     9    20 ar  
    27    10    19 ar  
    28    10    40 1   
    29    11    18 ar  
    30    11    19 ar  
    31    11    41 1   
    32    12    13 ar  
    33    12    17 ar  
    34    12    42 1   
    35    13    19 ar  
    36    14    21 1   
    37    14    22 ar  
    38    14    25 ar  
    39    15    16 1   
    40    15    21 1   
    41    15    54 2   
    42    16    43 1   
    43    17    18 ar  
    44    17    44 1   
    45    18    45 1   
    46    20    46 1   
    47    21    47 1   
    48    22    23 ar  
    49    23    24 ar  
    50    23    48 1   
    51    24    26 ar  
    52    24    49 1   
    53    25    26 ar  
    54    25    50 1   
    55    26    27 1   
    56    30    31 1   
    57    30    51 1   
    58    30    52 1   
@<TRIPOS>SUBSTRUCTURE
     1 RRD         1 TEMP              0 ****  ****    0 ROOT
