@<TRIPOS>MOLECULE
RRD
   54    58     1     0     0
SMALL
No Charge or Current Charge


@<TRIPOS>ATOM
      1 N1         -19.4170     7.9800    29.8150 ns         1 RRD      -0.485900
      2 N3         -16.8420     3.7880    25.1670 nb         1 RRD      -0.653000
      3 C4         -22.0540     6.4420    30.9930 c          1 RRD       0.575600
      4 C5         -21.8340     8.3720    29.3860 c3         1 RRD       0.019000
      5 C6         -20.4110     8.9250    29.6330 c          1 RRD       0.586100
      6 C7         -18.0240     8.2520    30.1080 cy         1 RRD       0.059700
      7 C8         -17.5890     9.2030    31.2700 cy         1 RRD       0.127100
      8 C10        -22.4820     6.0370    28.5620 c6         1 RRD       0.123000
      9 C13        -18.7650     4.7990    26.2640 ca         1 RRD      -0.092000
     10 C15        -16.3370     5.0290    24.9760 ca         1 RRD       0.368900
     11 C17        -16.4310     7.4700    25.1450 ca         1 RRD      -0.079000
     12 C20        -18.9240     7.2700    26.4330 ca         1 RRD      -0.100000
     13 C21        -18.2420     6.0950    26.0460 ca         1 RRD      -0.002000
     14 C22        -21.9400     4.0800    30.0620 ca         1 RRD      -0.044300
     15 C12        -20.2940     4.8360    28.2680 c          1 RRD       0.606100
     16 N2         -19.9940     4.5890    26.9400 ns         1 RRD      -0.158000
     17 C19        -18.3610     8.5320    26.1780 ca         1 RRD      -0.085000
     18 C18        -17.1130     8.6320    25.5410 ca         1 RRD      -0.108000
     19 C16        -16.9970     6.2030    25.3900 ca         1 RRD      -0.094000
     20 C14        -18.0350     3.6870    25.7970 ca         1 RRD       0.325900
     21 C11        -21.7730     4.6760    28.6620 c6         1 RRD      -0.111400
     22 C3         -22.0890     4.9400    31.1760 ca         1 RRD      -0.122600
     23 C2         -22.2310     4.3820    32.4650 ca         1 RRD      -0.042000
     24 C1         -22.2370     2.9870    32.6380 ca         1 RRD      -0.103000
     25 C23        -21.9440     2.6840    30.2430 ca         1 RRD      -0.106000
     26 C          -22.0940     2.1410    31.5280 ca         1 RRD       0.144000
     27 Cl         -22.0980     0.3960    31.7480 cl         1 RRD      -0.195000
     28 N          -22.0250     6.9140    29.6610 n          1 RRD      -0.418800
     29 O1         -20.1860    10.1270    29.6750 o          1 RRD      -0.604100
     30 C9         -17.1570     9.2260    29.2470 cy         1 RRD       0.127100
     31 O2         -16.3870     9.5090    30.4730 oq         1 RRD      -0.453000
     32 H1         -19.7170     7.0110    29.7350 hn         1 RRD       0.349500
     33 H2         -22.0800     8.5850    28.3390 h1         1 RRD       0.079700
     34 H3         -22.5250     8.9480    30.0140 h1         1 RRD       0.079700
     35 H4         -17.5300     7.2780    30.2000 h1         1 RRD       0.076700
     36 H5         -18.2180    10.0900    31.4120 h1         1 RRD       0.060450
     37 H6         -17.3560     8.7140    32.2220 h1         1 RRD       0.060450
     38 H7         -22.2830     6.5000    27.5840 h1         1 RRD       0.055700
     39 H8         -23.5690     5.8950    28.6500 h1         1 RRD       0.055700
     40 H9         -15.3750     5.0820    24.4660 h4         1 RRD       0.025100
     41 H10        -15.4690     7.5550    24.6430 ha         1 RRD       0.122000
     42 H11        -19.8950     7.2220    26.9170 ha         1 RRD       0.114000
     43 H12        -20.7650     4.2810    26.3590 hn         1 RRD       0.160000
     44 H13        -18.8930     9.4340    26.4750 ha         1 RRD       0.122000
     45 H14        -16.6790     9.6110    25.3470 ha         1 RRD       0.123000
     46 H15        -18.4140     2.6760    25.9450 h4         1 RRD       0.024100
     47 H16        -22.2510     4.0420    27.9030 hc         1 RRD       0.072700
     48 H17        -22.3380     5.0270    33.3360 ha         1 RRD       0.148000
     49 H18        -22.3500     2.5620    33.6320 ha         1 RRD       0.140000
     50 H19        -21.8310     2.0190    29.3900 ha         1 RRD       0.129000
     51 H20        -16.5510     8.7560    28.4650 h1         1 RRD       0.060450
     52 H21        -17.6770    10.1180    28.8790 h1         1 RRD       0.060450
     53 O          -21.9830     7.2110    31.9420 o          1 RRD      -0.537000
     54 O3         -19.4340     5.1310    29.0910 o          1 RRD      -0.585100
@<TRIPOS>BOND
     1     1     5 1   
     2     1     6 1   
     3     1    32 1   
     4     2    10 ar  
     5     2    20 ar  
     6     3    22 1   
     7     3    28 1   
     8     3    53 2   
     9     4     5 1   
    10     4    28 1   
    11     4    33 1   
    12     4    34 1   
    13     5    29 2   
    14     6     7 1   
    15     6    30 1   
    16     6    35 1   
    17     7    31 1   
    18     7    36 1   
    19     7    37 1   
    20     8    21 1   
    21     8    28 1   
    22     8    38 1   
    23     8    39 1   
    24     9    13 ar  
    25     9    16 1   
    26     9    20 ar  
    27    10    19 ar  
    28    10    40 1   
    29    11    18 ar  
    30    11    19 ar  
    31    11    41 1   
    32    12    13 ar  
    33    12    17 ar  
    34    12    42 1   
    35    13    19 ar  
    36    14    21 1   
    37    14    22 ar  
    38    14    25 ar  
    39    15    16 1   
    40    15    21 1   
    41    15    54 2   
    42    16    43 1   
    43    17    18 ar  
    44    17    44 1   
    45    18    45 1   
    46    20    46 1   
    47    21    47 1   
    48    22    23 ar  
    49    23    24 ar  
    50    23    48 1   
    51    24    26 ar  
    52    24    49 1   
    53    25    26 ar  
    54    25    50 1   
    55    26    27 1   
    56    30    31 1   
    57    30    51 1   
    58    30    52 1   
@<TRIPOS>SUBSTRUCTURE
     1 RRD         1 TEMP              0 ****  ****    0 ROOT
