@<TRIPOS>MOLECULE
RRF
   39    42     1     0     0
SMALL
abcg2


@<TRIPOS>ATOM
      1 C18        -49.3540   -29.2270     6.2130 ca         1 RRF      -0.066200
      2 C16        -49.5270   -29.4850     3.8040 ca         1 RRF       0.000000
      3 C17        -50.1140   -29.5420     5.0650 ca         1 RRF       0.044400
      4 C15        -48.1860   -29.1260     3.7110 ca         1 RRF      -0.151600
      5 C14        -47.5720   -29.0820     2.3430 c          1 RRF       0.605700
      6 C12        -45.4900   -29.2170     1.0360 c5         1 RRF       0.166000
      7 C11        -45.1950   -27.8400     0.4690 ca         1 RRF      -0.056300
      8 C10        -46.0600   -26.9770    -0.1900 ca         1 RRF      -0.115000
      9 C20        -51.4260   -29.7690     6.7440 cc         1 RRF       0.395700
     10 C02        -43.9700   -30.8600     2.3810 c          1 RRF       0.716000
     11 C03        -44.0650   -29.8100     1.2570 c5         1 RRF      -0.199700
     12 C04        -43.1450   -28.5840     1.4590 c5         1 RRF      -0.024100
     13 C05        -43.8710   -27.4880     0.7250 ca         1 RRF      -0.155300
     14 C06        -43.3950   -26.2470     0.3150 ca         1 RRF       0.122100
     15 C08        -44.2520   -25.3700    -0.3520 ca         1 RRF      -0.153000
     16 C09        -45.5710   -25.7370    -0.5990 ca         1 RRF      -0.104000
     17 C22        -48.0160   -28.8520     6.1350 ca         1 RRF      -0.138000
     18 C23        -47.4480   -28.8100     4.8730 ca         1 RRF      -0.042000
     19 N13        -46.2300   -29.1400     2.2920 ns         1 RRF      -0.481900
     20 N19        -50.2250   -29.3820     7.2660 na         1 RRF      -0.331600
     21 N21        -51.4100   -29.8780     5.4380 nd         1 RRF      -0.570100
     22 O01        -43.7220   -32.0420     2.0520 o          1 RRF      -0.724500
     23 O07        -42.1070   -25.8390     0.5320 oh         1 RRF      -0.559100
     24 O24        -48.2750   -29.0050     1.3270 o          1 RRF      -0.660100
     25 O25        -44.1620   -30.4430     3.5610 o          1 RRF      -0.724500
     26 H161       -50.0900   -29.7190     2.9110 ha         1 RRF       0.147000
     27 H121       -46.0680   -29.8260     0.3410 h1         1 RRF       0.069700
     28 H101       -47.0860   -27.2610    -0.3780 ha         1 RRF       0.133000
     29 H201       -52.2790   -29.9560     7.3780 h5         1 RRF       0.050800
     30 H031       -43.7890   -30.2910     0.3200 hc         1 RRF       0.053700
     31 H041       -42.1400   -28.7740     1.0740 hc         1 RRF       0.051700
     32 H042       -43.0500   -28.3460     2.5220 hc         1 RRF       0.051700
     33 H081       -43.8720   -24.4090    -0.6760 ha         1 RRF       0.109000
     34 H091       -46.2210   -25.0460    -1.1220 ha         1 RRF       0.099000
     35 H221       -47.4430   -28.5970     7.0170 ha         1 RRF       0.114000
     36 H231       -46.4150   -28.5010     4.7860 ha         1 RRF       0.139000
     37 H131       -45.6870   -29.4040     3.1120 hn         1 RRF       0.376500
     38 H191       -50.0240   -29.2360     8.2440 hn         1 RRF       0.349000
     39 H071       -41.6110   -26.5360     0.9840 ho         1 RRF       0.463000
@<TRIPOS>BOND
     1     1     3 ar  
     2     1    17 ar  
     3     1    20 1   
     4     2     3 ar  
     5     2     4 ar  
     6     2    26 1   
     7     3    21 1   
     8     4     5 1   
     9     4    18 ar  
    10     5    19 1   
    11     5    24 2   
    12     6     7 1   
    13     6    11 1   
    14     6    19 1   
    15     6    27 1   
    16     7     8 ar  
    17     7    13 ar  
    18     8    16 ar  
    19     8    28 1   
    20     9    20 1   
    21     9    21 2   
    22     9    29 1   
    23    10    11 1   
    24    10    22 1   
    25    10    25 1   
    26    11    12 1   
    27    11    30 1   
    28    12    13 1   
    29    12    31 1   
    30    12    32 1   
    31    13    14 ar  
    32    14    15 ar  
    33    14    23 1   
    34    15    16 ar  
    35    15    33 1   
    36    16    34 1   
    37    17    18 ar  
    38    17    35 1   
    39    18    36 1   
    40    19    37 1   
    41    20    38 1   
    42    23    39 1   
@<TRIPOS>SUBSTRUCTURE
     1 RRF         1 TEMP              0 ****  ****    0 ROOT
