@<TRIPOS>MOLECULE
RRF
   39    42     1     0     0
SMALL
No Charge or Current Charge


@<TRIPOS>ATOM
      1 C18        -49.3670   -29.3370     6.2160 ca         1 RRF      -0.066200
      2 C16        -49.5580   -29.2380     3.8240 ca         1 RRF       0.000000
      3 C17        -50.1430   -29.2850     5.0980 ca         1 RRF       0.044400
      4 C15        -48.1420   -29.2470     3.7120 ca         1 RRF      -0.151600
      5 C14        -47.5200   -29.1940     2.3330 c          1 RRF       0.605700
      6 C12        -45.4790   -29.2620     0.9790 c5         1 RRF       0.166000
      7 C11        -45.1990   -27.8840     0.4230 ca         1 RRF      -0.056300
      8 C10        -46.0780   -27.0960    -0.3390 ca         1 RRF      -0.115000
      9 C20        -51.5100   -29.3400     6.7730 cc         1 RRF       0.395700
     10 C02        -43.8270   -30.8070     2.3710 c          1 RRF       0.716000
     11 C03        -43.9870   -29.7390     1.2520 c5         1 RRF      -0.199700
     12 C04        -43.1610   -28.4300     1.5700 c5         1 RRF      -0.024100
     13 C05        -43.9320   -27.4240     0.7470 ca         1 RRF      -0.155300
     14 C06        -43.5040   -26.1520     0.3290 ca         1 RRF       0.122100
     15 C08        -44.3730   -25.3520    -0.4350 ca         1 RRF      -0.153000
     16 C09        -45.6590   -25.8230    -0.7710 ca         1 RRF      -0.104000
     17 C22        -47.9720   -29.3460     6.1710 ca         1 RRF      -0.138000
     18 C23        -47.3550   -29.3000     4.9030 ca         1 RRF      -0.042000
     19 N13        -46.1440   -29.2480     2.2800 ns         1 RRF      -0.481900
     20 N19        -50.2120   -29.3730     7.2800 na         1 RRF      -0.331600
     21 N21        -51.4980   -29.2860     5.4240 nd         1 RRF      -0.570100
     22 O01        -43.4080   -31.9120     2.0600 o          1 RRF      -0.724500
     23 O07        -42.2650   -25.6870     0.6550 oh         1 RRF      -0.559100
     24 O24        -48.2070   -29.1100     1.3220 o          1 RRF      -0.660100
     25 O25        -44.0750   -30.5170     3.5340 o          1 RRF      -0.724500
     26 H161       -50.1930   -29.1960     2.9420 ha         1 RRF       0.147000
     27 H121       -45.9830   -29.9120     0.2490 h1         1 RRF       0.069700
     28 H101       -47.0700   -27.4640    -0.5910 ha         1 RRF       0.133000
     29 H201       -52.3860   -29.3590     7.4110 h5         1 RRF       0.050800
     30 H031       -43.6160   -30.1810     0.3200 hc         1 RRF       0.053700
     31 H041       -42.1110   -28.5300     1.2710 hc         1 RRF       0.051700
     32 H042       -43.1820   -28.1670     2.6340 hc         1 RRF       0.051700
     33 H081       -44.0530   -24.3680    -0.7670 ha         1 RRF       0.109000
     34 H091       -46.3290   -25.2020    -1.3610 ha         1 RRF       0.099000
     35 H221       -47.3780   -29.3870     7.0820 ha         1 RRF       0.114000
     36 H231       -46.2690   -29.3030     4.8660 ha         1 RRF       0.139000
     37 H131       -45.6390   -29.4120     3.1440 hn         1 RRF       0.376500
     38 H191       -49.9620   -29.4150     8.2590 hn         1 RRF       0.349000
     39 H071       -41.8200   -26.3690     1.2010 ho         1 RRF       0.463000
@<TRIPOS>BOND
     1     1     3 ar  
     2     1    17 ar  
     3     1    20 1   
     4     2     3 ar  
     5     2     4 ar  
     6     2    26 1   
     7     3    21 1   
     8     4     5 1   
     9     4    18 ar  
    10     5    19 1   
    11     5    24 2   
    12     6     7 1   
    13     6    11 1   
    14     6    19 1   
    15     6    27 1   
    16     7     8 ar  
    17     7    13 ar  
    18     8    16 ar  
    19     8    28 1   
    20     9    20 1   
    21     9    21 2   
    22     9    29 1   
    23    10    11 1   
    24    10    22 1   
    25    10    25 1   
    26    11    12 1   
    27    11    30 1   
    28    12    13 1   
    29    12    31 1   
    30    12    32 1   
    31    13    14 ar  
    32    14    15 ar  
    33    14    23 1   
    34    15    16 ar  
    35    15    33 1   
    36    16    34 1   
    37    17    18 ar  
    38    17    35 1   
    39    18    36 1   
    40    19    37 1   
    41    20    38 1   
    42    23    39 1   
@<TRIPOS>SUBSTRUCTURE
     1 RRF         1 TEMP              0 ****  ****    0 ROOT
