@<TRIPOS>MOLECULE
RRG
   50    52     1     0     0
SMALL
abcg2


@<TRIPOS>ATOM
      1 CAA          4.8310     0.1140     2.6600 c3         1 RRG      -0.080100
      2 CAZ          4.3580     0.7470     1.3520 c3         1 RRG      -0.023400
      3 CAB          5.0810     2.0710     1.0970 c3         1 RRG      -0.080100
      4 CAY          4.5270    -0.1950     0.1780 ca         1 RRG      -0.062300
      5 CAM          5.8150    -0.5970    -0.1810 ca         1 RRG      -0.115000
      6 CAI          6.0520    -1.4070    -1.2800 ca         1 RRG      -0.129000
      7 CAH          4.9850    -1.8320    -2.0600 ca         1 RRG      -0.121000
      8 CAL          3.7000    -1.4520    -1.7140 ca         1 RRG      -0.109000
      9 CAX          3.4490    -0.6460    -0.5990 cp         1 RRG       0.010000
     10 CAW          2.0380    -0.3090    -0.2950 cp         1 RRG      -0.132000
     11 CAQ          1.2480     0.3500    -1.2310 ca         1 RRG      -0.063500
     12 CAO         -0.0900     0.6370    -0.9930 ca         1 RRG      -0.182000
     13 CAP          1.4330    -0.6870     0.9050 ca         1 RRG      -0.063500
     14 CAN          0.1010    -0.4160     1.1570 ca         1 RRG      -0.182000
     15 CAV         -0.6790     0.2540     0.2110 ca         1 RRG       0.216100
     16 OAS         -1.9650     0.4480     0.5340 os         1 RRG      -0.329100
     17 CBA         -2.8090     1.1310    -0.3730 c3         1 RRG       0.022300
     18 CAT         -2.4820     2.6400    -0.4780 c          1 RRG       0.701000
     19 OAD         -1.7730     3.1350     0.4120 o          1 RRG      -0.708000
     20 OAC         -3.0080     3.2140    -1.4510 o          1 RRG      -0.708000
     21 CAR         -4.2390     0.9400     0.1320 c3         1 RRG      -0.025100
     22 CAU         -4.6280    -0.5080     0.2420 ca         1 RRG      -0.050300
     23 CAJ         -4.5590    -1.1820     1.4580 ca         1 RRG      -0.106000
     24 CAF         -4.9030    -2.5240     1.5500 ca         1 RRG      -0.120000
     25 CAE         -5.3170    -3.2170     0.4200 ca         1 RRG      -0.133000
     26 CAG         -5.3870    -2.5570    -0.8010 ca         1 RRG      -0.120000
     27 CAK         -5.0460    -1.2140    -0.8850 ca         1 RRG      -0.106000
     28 H1           4.2850    -0.8030     2.8860 hc         1 RRG       0.029533
     29 H2           5.8930    -0.1350     2.6230 hc         1 RRG       0.029533
     30 H3           4.6830     0.8030     3.4940 hc         1 RRG       0.029533
     31 H4           3.2980     0.9790     1.4630 hc         1 RRG       0.081700
     32 H5           6.1590     1.9310     0.9980 hc         1 RRG       0.029533
     33 H6           4.7220     2.5490     0.1850 hc         1 RRG       0.029533
     34 H7           4.9140     2.7610     1.9260 hc         1 RRG       0.029533
     35 H8           6.6590    -0.2600     0.4100 ha         1 RRG       0.101000
     36 H9           7.0640    -1.6980    -1.5290 ha         1 RRG       0.098000
     37 H10          5.1510    -2.4600    -2.9250 ha         1 RRG       0.101000
     38 H11          2.8620    -1.7940    -2.3100 ha         1 RRG       0.115000
     39 H12          1.6840     0.6620    -2.1720 ha         1 RRG       0.097500
     40 H13         -0.6470     1.1620    -1.7580 ha         1 RRG       0.127500
     41 H14          2.0090    -1.2210     1.6520 ha         1 RRG       0.097500
     42 H15         -0.3500    -0.7310     2.0900 ha         1 RRG       0.127500
     43 H16         -2.7340     0.6750    -1.3690 h1         1 RRG       0.030700
     44 H18         -4.3500     1.4330     1.1010 hc         1 RRG       0.065200
     45 H19         -4.9020     1.4540    -0.5660 hc         1 RRG       0.065200
     46 H20         -4.2360    -0.6500     2.3450 ha         1 RRG       0.115000
     47 H21         -4.8480    -3.0300     2.5060 ha         1 RRG       0.097000
     48 H22         -5.5860    -4.2630     0.4910 ha         1 RRG       0.094000
     49 H23         -5.7120    -3.0860    -1.6880 ha         1 RRG       0.097000
     50 H24         -5.1080    -0.7050    -1.8410 ha         1 RRG       0.115000
@<TRIPOS>BOND
     1     1     2 1   
     2     1    28 1   
     3     1    29 1   
     4     1    30 1   
     5     2     3 1   
     6     2     4 1   
     7     2    31 1   
     8     3    32 1   
     9     3    33 1   
    10     3    34 1   
    11     4     5 ar  
    12     4     9 ar  
    13     5     6 ar  
    14     5    35 1   
    15     6     7 ar  
    16     6    36 1   
    17     7     8 ar  
    18     7    37 1   
    19     8     9 ar  
    20     8    38 1   
    21     9    10 1   
    22    10    11 ar  
    23    10    13 ar  
    24    11    12 ar  
    25    11    39 1   
    26    12    15 ar  
    27    12    40 1   
    28    13    14 ar  
    29    13    41 1   
    30    14    15 ar  
    31    14    42 1   
    32    15    16 1   
    33    16    17 1   
    34    17    18 1   
    35    17    21 1   
    36    17    43 1   
    37    18    19 1   
    38    18    20 1   
    39    21    22 1   
    40    21    44 1   
    41    21    45 1   
    42    22    23 ar  
    43    22    27 ar  
    44    23    24 ar  
    45    23    46 1   
    46    24    25 ar  
    47    24    47 1   
    48    25    26 ar  
    49    25    48 1   
    50    26    27 ar  
    51    26    49 1   
    52    27    50 1   
@<TRIPOS>SUBSTRUCTURE
     1 RRG         1 TEMP              0 ****  ****    0 ROOT
