@<TRIPOS>MOLECULE
RRG
   50    52     1     0     0
SMALL
No Charge or Current Charge


@<TRIPOS>ATOM
      1 CAA          4.8340     0.2300     2.6420 c3         1 RRG      -0.080100
      2 CAZ          4.4170     0.8360     1.2830 c3         1 RRG      -0.023400
      3 CAB          5.1450     2.1720     1.0050 c3         1 RRG      -0.080100
      4 CAY          4.6100    -0.1710     0.1350 ca         1 RRG      -0.062300
      5 CAM          5.9270    -0.5520    -0.2110 ca         1 RRG      -0.115000
      6 CAI          6.1700    -1.4350    -1.2750 ca         1 RRG      -0.129000
      7 CAH          5.0990    -1.9500    -2.0160 ca         1 RRG      -0.121000
      8 CAL          3.7860    -1.5890    -1.6820 ca         1 RRG      -0.109000
      9 CAX          3.5130    -0.7100    -0.6060 cp         1 RRG       0.010000
     10 CAW          2.0880    -0.3910    -0.2990 cp         1 RRG      -0.132000
     11 CAQ          1.2720     0.2500    -1.2590 ca         1 RRG      -0.063500
     12 CAO         -0.0760     0.5420    -0.9850 ca         1 RRG      -0.182000
     13 CAP          1.5080    -0.7520     0.9400 ca         1 RRG      -0.063500
     14 CAN          0.1620    -0.4610     1.2160 ca         1 RRG      -0.182000
     15 CAV         -0.6360     0.1910     0.2620 ca         1 RRG       0.216100
     16 OAS         -1.9560     0.4380     0.5900 os         1 RRG      -0.329100
     17 CBA         -2.8630     1.1690    -0.2780 c3         1 RRG       0.022300
     18 CAT         -2.5360     2.6970    -0.3760 c          1 RRG       0.701000
     19 OAD         -1.7590     3.2040     0.4230 o          1 RRG      -0.708000
     20 OAC         -3.0420     3.3270    -1.2960 o          1 RRG      -0.708000
     21 CAR         -4.2900     0.9500     0.2790 c3         1 RRG      -0.025100
     22 CAU         -4.7090    -0.5170     0.2820 ca         1 RRG      -0.050300
     23 CAJ         -4.7480    -1.2470     1.4860 ca         1 RRG      -0.106000
     24 CAF         -5.1350    -2.5990     1.4840 ca         1 RRG      -0.120000
     25 CAE         -5.4850    -3.2290     0.2790 ca         1 RRG      -0.133000
     26 CAG         -5.4480    -2.5070    -0.9260 ca         1 RRG      -0.120000
     27 CAK         -5.0610    -1.1550    -0.9240 ca         1 RRG      -0.106000
     28 H1           4.2850    -0.6990     2.8330 hc         1 RRG       0.029533
     29 H2           5.9070     0.0050     2.6620 hc         1 RRG       0.029533
     30 H3           4.6150     0.9280     3.4590 hc         1 RRG       0.029533
     31 H4           3.3580     1.1000     1.3730 hc         1 RRG       0.081700
     32 H5           6.2330     2.0410     0.9860 hc         1 RRG       0.029533
     33 H6           4.8310     2.5850     0.0390 hc         1 RRG       0.029533
     34 H7           4.9070     2.9080     1.7820 hc         1 RRG       0.029533
     35 H8           6.7740    -0.1600     0.3460 ha         1 RRG       0.101000
     36 H9           7.1900    -1.7140    -1.5270 ha         1 RRG       0.098000
     37 H10          5.2850    -2.6320    -2.8430 ha         1 RRG       0.101000
     38 H11          2.9600    -2.0020    -2.2560 ha         1 RRG       0.115000
     39 H12          1.6930     0.5260    -2.2240 ha         1 RRG       0.097500
     40 H13         -0.6660     1.0370    -1.7500 ha         1 RRG       0.127500
     41 H14          2.1090    -1.2650     1.6880 ha         1 RRG       0.097500
     42 H15         -0.2690    -0.7440     2.1730 ha         1 RRG       0.127500
     43 H16         -2.8330     0.7530    -1.2930 h1         1 RRG       0.030700
     44 H18         -4.3480     1.3730     1.2890 hc         1 RRG       0.065200
     45 H19         -4.9990     1.5270    -0.3280 hc         1 RRG       0.065200
     46 H20         -4.4750    -0.7690     2.4240 ha         1 RRG       0.115000
     47 H21         -5.1610    -3.1580     2.4170 ha         1 RRG       0.097000
     48 H22         -5.7830    -4.2750     0.2770 ha         1 RRG       0.094000
     49 H23         -5.7180    -2.9930    -1.8600 ha         1 RRG       0.097000
     50 H24         -5.0350    -0.6030    -1.8610 ha         1 RRG       0.115000
@<TRIPOS>BOND
     1     1     2 1   
     2     1    28 1   
     3     1    29 1   
     4     1    30 1   
     5     2     3 1   
     6     2     4 1   
     7     2    31 1   
     8     3    32 1   
     9     3    33 1   
    10     3    34 1   
    11     4     5 ar  
    12     4     9 ar  
    13     5     6 ar  
    14     5    35 1   
    15     6     7 ar  
    16     6    36 1   
    17     7     8 ar  
    18     7    37 1   
    19     8     9 ar  
    20     8    38 1   
    21     9    10 1   
    22    10    11 ar  
    23    10    13 ar  
    24    11    12 ar  
    25    11    39 1   
    26    12    15 ar  
    27    12    40 1   
    28    13    14 ar  
    29    13    41 1   
    30    14    15 ar  
    31    14    42 1   
    32    15    16 1   
    33    16    17 1   
    34    17    18 1   
    35    17    21 1   
    36    17    43 1   
    37    18    19 1   
    38    18    20 1   
    39    21    22 1   
    40    21    44 1   
    41    21    45 1   
    42    22    23 ar  
    43    22    27 ar  
    44    23    24 ar  
    45    23    46 1   
    46    24    25 ar  
    47    24    47 1   
    48    25    26 ar  
    49    25    48 1   
    50    26    27 ar  
    51    26    49 1   
    52    27    50 1   
@<TRIPOS>SUBSTRUCTURE
     1 RRG         1 TEMP              0 ****  ****    0 ROOT
