@<TRIPOS>MOLECULE
RRH
   50    52     1     0     0
SMALL
abcg2


@<TRIPOS>ATOM
      1 CAA          4.4480     2.1560     1.4940 c3         1 RRH      -0.080100
      2 CAZ          4.2100     1.4970     0.1340 c3         1 RRH      -0.025400
      3 CAB          5.0540     2.1680    -0.9500 c3         1 RRH      -0.080100
      4 CAY          4.4610     0.0040     0.1970 ca         1 RRH      -0.060300
      5 CAM          5.7700    -0.4500     0.3660 ca         1 RRH      -0.115000
      6 CAI          6.0820    -1.7990     0.3950 ca         1 RRH      -0.129000
      7 CAH          5.0700    -2.7380     0.2460 ca         1 RRH      -0.123000
      8 CAL          3.7640    -2.3080     0.0880 ca         1 RRH      -0.111000
      9 CAX          3.4370    -0.9480     0.0710 cp         1 RRH       0.008000
     10 CAW          2.0090    -0.5820    -0.0860 cp         1 RRH      -0.131000
     11 CAQ          1.2800    -1.0260    -1.1900 ca         1 RRH      -0.063500
     12 CAO         -0.0610    -0.7210    -1.3400 ca         1 RRH      -0.180500
     13 CAP          1.3310     0.1710     0.8690 ca         1 RRH      -0.063500
     14 CAN         -0.0130     0.4890     0.7340 ca         1 RRH      -0.180500
     15 CAV         -0.7240     0.0480    -0.3820 ca         1 RRH       0.219100
     16 OAS         -2.0280     0.2750    -0.6010 os         1 RRH      -0.332100
     17 CBA         -2.7400     1.1300     0.2730 c3         1 RRH       0.022300
     18 CAT         -2.2930     2.6090     0.1600 c          1 RRH       0.702000
     19 OAD         -2.7100     3.3450     1.0750 o          1 RRH      -0.708000
     20 OAC         -1.6050     2.9240    -0.8230 o          1 RRH      -0.708000
     21 CAR         -4.2160     0.9980    -0.0970 c3         1 RRH      -0.026100
     22 CAU         -4.7260    -0.4080     0.0500 ca         1 RRH      -0.050300
     23 CAJ         -5.1080    -0.8920     1.3000 ca         1 RRH      -0.106000
     24 CAF         -5.5520    -2.1980     1.4550 ca         1 RRH      -0.120000
     25 CAE         -5.6230    -3.0450     0.3550 ca         1 RRH      -0.133000
     26 CAG         -5.2470    -2.5720    -0.8960 ca         1 RRH      -0.120000
     27 CAK         -4.8000    -1.2660    -1.0440 ca         1 RRH      -0.106000
     28 H1           3.8270     1.7070     2.2710 hc         1 RRH       0.029533
     29 H2           5.4890     2.0580     1.8080 hc         1 RRH       0.029533
     30 H3           4.2120     3.2200     1.4510 hc         1 RRH       0.029533
     31 H4           3.1650     1.6590    -0.1340 hc         1 RRH       0.084700
     32 H5           4.8610     1.7330    -1.9310 hc         1 RRH       0.029533
     33 H6           4.8190     3.2320    -1.0050 hc         1 RRH       0.029533
     34 H7           6.1240     2.0810    -0.7500 hc         1 RRH       0.029533
     35 H8           6.5710     0.2730     0.4670 ha         1 RRH       0.102000
     36 H9           7.1080    -2.1150     0.5290 ha         1 RRH       0.098000
     37 H10          5.2940    -3.7970     0.2620 ha         1 RRH       0.100000
     38 H11          2.9700    -3.0380    -0.0080 ha         1 RRH       0.113000
     39 H12          1.7740    -1.6130    -1.9550 ha         1 RRH       0.097000
     40 H13         -0.6040    -1.0740    -2.2080 ha         1 RRH       0.126000
     41 H14          1.8540     0.5170     1.7520 ha         1 RRH       0.097000
     42 H15         -0.4830     1.0770     1.5100 ha         1 RRH       0.126000
     43 H16         -2.6170     0.7930     1.3120 h1         1 RRH       0.030700
     44 H18         -4.7760     1.6700     0.5550 hc         1 RRH       0.065200
     45 H19         -4.3640     1.3500    -1.1210 hc         1 RRH       0.065200
     46 H20         -5.0620    -0.2370     2.1630 ha         1 RRH       0.115000
     47 H21         -5.8450    -2.5550     2.4330 ha         1 RRH       0.096500
     48 H22         -5.9720    -4.0620     0.4720 ha         1 RRH       0.094000
     49 H23         -5.3020    -3.2230    -1.7600 ha         1 RRH       0.096500
     50 H24         -4.5100    -0.9070    -2.0240 ha         1 RRH       0.115000
@<TRIPOS>BOND
     1     1     2 1   
     2     1    28 1   
     3     1    29 1   
     4     1    30 1   
     5     2     3 1   
     6     2     4 1   
     7     2    31 1   
     8     3    32 1   
     9     3    33 1   
    10     3    34 1   
    11     4     5 ar  
    12     4     9 ar  
    13     5     6 ar  
    14     5    35 1   
    15     6     7 ar  
    16     6    36 1   
    17     7     8 ar  
    18     7    37 1   
    19     8     9 ar  
    20     8    38 1   
    21     9    10 1   
    22    10    11 ar  
    23    10    13 ar  
    24    11    12 ar  
    25    11    39 1   
    26    12    15 ar  
    27    12    40 1   
    28    13    14 ar  
    29    13    41 1   
    30    14    15 ar  
    31    14    42 1   
    32    15    16 1   
    33    16    17 1   
    34    17    18 1   
    35    17    21 1   
    36    17    43 1   
    37    18    19 1   
    38    18    20 1   
    39    21    22 1   
    40    21    44 1   
    41    21    45 1   
    42    22    23 ar  
    43    22    27 ar  
    44    23    24 ar  
    45    23    46 1   
    46    24    25 ar  
    47    24    47 1   
    48    25    26 ar  
    49    25    48 1   
    50    26    27 ar  
    51    26    49 1   
    52    27    50 1   
@<TRIPOS>SUBSTRUCTURE
     1 RRH         1 TEMP              0 ****  ****    0 ROOT
