@<TRIPOS>MOLECULE
RRH
   50    52     1     0     0
SMALL
No Charge or Current Charge


@<TRIPOS>ATOM
      1 CAA          4.5550     2.2280     1.4380 c3         1 RRH      -0.080100
      2 CAZ          4.2700     1.5010     0.1040 c3         1 RRH      -0.025400
      3 CAB          5.0620     2.1260    -1.0680 c3         1 RRH      -0.080100
      4 CAY          4.5220    -0.0120     0.2230 ca         1 RRH      -0.060300
      5 CAM          5.8490    -0.4600     0.4160 ca         1 RRH      -0.115000
      6 CAI          6.1480    -1.8290     0.4900 ca         1 RRH      -0.129000
      7 CAH          5.1250    -2.7770     0.3700 ca         1 RRH      -0.123000
      8 CAL          3.8020    -2.3520     0.1850 ca         1 RRH      -0.111000
      9 CAX          3.4720    -0.9760     0.1190 cp         1 RRH       0.008000
     10 CAW          2.0380    -0.6010    -0.0560 cp         1 RRH      -0.131000
     11 CAQ          1.3250    -1.0070    -1.2080 ca         1 RRH      -0.063500
     12 CAO         -0.0290    -0.6690    -1.3710 ca         1 RRH      -0.180500
     13 CAP          1.3470     0.1340     0.9360 ca         1 RRH      -0.063500
     14 CAN         -0.0070     0.4740     0.7750 ca         1 RRH      -0.180500
     15 CAV         -0.7010     0.0760    -0.3890 ca         1 RRH       0.219100
     16 OAS         -2.0350     0.3660    -0.6050 os         1 RRH      -0.332100
     17 CBA         -2.8200     1.1930     0.2960 c3         1 RRH       0.022300
     18 CAT         -2.4190     2.7070     0.2620 c          1 RRH       0.702000
     19 OAD         -2.8050     3.4160     1.1830 o          1 RRH      -0.708000
     20 OAC         -1.7020     3.1240    -0.6390 o          1 RRH      -0.708000
     21 CAR         -4.3030     1.0120    -0.1060 c3         1 RRH      -0.026100
     22 CAU         -4.7840    -0.4300     0.0270 ca         1 RRH      -0.050300
     23 CAJ         -5.0440    -0.9740     1.3010 ca         1 RRH      -0.106000
     24 CAF         -5.4870    -2.3020     1.4290 ca         1 RRH      -0.120000
     25 CAE         -5.6740    -3.0950     0.2840 ca         1 RRH      -0.133000
     26 CAG         -5.4170    -2.5590    -0.9890 ca         1 RRH      -0.120000
     27 CAK         -4.9740    -1.2310    -1.1170 ca         1 RRH      -0.106000
     28 H1           3.9630     1.7900     2.2490 hc         1 RRH       0.029533
     29 H2           5.6150     2.1550     1.7100 hc         1 RRH       0.029533
     30 H3           4.2950     3.2900     1.3620 hc         1 RRH       0.029533
     31 H4           3.2170     1.6860    -0.1300 hc         1 RRH       0.084700
     32 H5           4.8400     1.5990    -2.0040 hc         1 RRH       0.029533
     33 H6           4.7860     3.1800    -1.2000 hc         1 RRH       0.029533
     34 H7           6.1430     2.0800    -0.8940 hc         1 RRH       0.029533
     35 H8           6.6610     0.2580     0.5050 ha         1 RRH       0.102000
     36 H9           7.1760    -2.1540     0.6370 ha         1 RRH       0.098000
     37 H10          5.3550    -3.8390     0.4240 ha         1 RRH       0.100000
     38 H11          3.0120    -3.0940     0.1030 ha         1 RRH       0.113000
     39 H12          1.8300    -1.5840    -1.9790 ha         1 RRH       0.097000
     40 H13         -0.5630    -0.9850    -2.2630 ha         1 RRH       0.126000
     41 H14          1.8690     0.4390     1.8400 ha         1 RRH       0.097000
     42 H15         -0.4990     1.0390     1.5600 ha         1 RRH       0.126000
     43 H16         -2.7090     0.8390     1.3290 h1         1 RRH       0.030700
     44 H18         -4.9230     1.6590     0.5250 hc         1 RRH       0.065200
     45 H19         -4.4410     1.3730    -1.1330 hc         1 RRH       0.065200
     46 H20         -4.9010    -0.3670     2.1920 ha         1 RRH       0.115000
     47 H21         -5.6850    -2.7160     2.4150 ha         1 RRH       0.096500
     48 H22         -6.0160    -4.1220     0.3830 ha         1 RRH       0.094000
     49 H23         -5.5600    -3.1720    -1.8760 ha         1 RRH       0.096500
     50 H24         -4.7730    -0.8250    -2.1060 ha         1 RRH       0.115000
@<TRIPOS>BOND
     1     1     2 1   
     2     1    28 1   
     3     1    29 1   
     4     1    30 1   
     5     2     3 1   
     6     2     4 1   
     7     2    31 1   
     8     3    32 1   
     9     3    33 1   
    10     3    34 1   
    11     4     5 ar  
    12     4     9 ar  
    13     5     6 ar  
    14     5    35 1   
    15     6     7 ar  
    16     6    36 1   
    17     7     8 ar  
    18     7    37 1   
    19     8     9 ar  
    20     8    38 1   
    21     9    10 1   
    22    10    11 ar  
    23    10    13 ar  
    24    11    12 ar  
    25    11    39 1   
    26    12    15 ar  
    27    12    40 1   
    28    13    14 ar  
    29    13    41 1   
    30    14    15 ar  
    31    14    42 1   
    32    15    16 1   
    33    16    17 1   
    34    17    18 1   
    35    17    21 1   
    36    17    43 1   
    37    18    19 1   
    38    18    20 1   
    39    21    22 1   
    40    21    44 1   
    41    21    45 1   
    42    22    23 ar  
    43    22    27 ar  
    44    23    24 ar  
    45    23    46 1   
    46    24    25 ar  
    47    24    47 1   
    48    25    26 ar  
    49    25    48 1   
    50    26    27 ar  
    51    26    49 1   
    52    27    50 1   
@<TRIPOS>SUBSTRUCTURE
     1 RRH         1 TEMP              0 ****  ****    0 ROOT
