@<TRIPOS>MOLECULE
RRI
   23    24     1     0     0
SMALL
abcg2


@<TRIPOS>ATOM
      1 C01         24.3200    66.5960    71.4900 c3         1 RRI      -0.173100
      2 C02         25.6060    67.1080    72.0910 c          1 RRI       0.608100
      3 C05         26.6270    64.9290    71.3820 c5         1 RRI       0.102000
      4 C06         28.0890    64.4490    71.3400 c5         1 RRI      -0.036100
      5 C07         28.8200    65.4530    72.1890 ca         1 RRI      -0.139300
      6 C08         30.1380    65.4520    72.6080 ca         1 RRI      -0.074000
      7 C09         30.6130    66.5190    73.3740 ca         1 RRI      -0.136000
      8 C10         29.7620    67.5680    73.7060 ca         1 RRI      -0.089000
      9 C11         28.4300    67.5820    73.2900 ca         1 RRI      -0.116000
     10 C12         27.9700    66.5100    72.5300 ca         1 RRI      -0.028000
     11 N04         26.6810    66.2770    72.0040 n          1 RRI      -0.227400
     12 O03         25.6710    68.2160    72.6270 o          1 RRI      -0.592100
     13 H1          23.5370    67.3260    71.6740 hc         1 RRI       0.063033
     14 H2          24.4270    66.4450    70.4140 hc         1 RRI       0.063033
     15 H3          24.0340    65.6370    71.9280 hc         1 RRI       0.063033
     16 H5          28.1880    63.4330    71.7220 hc         1 RRI       0.060200
     17 H6          30.7930    64.6320    72.3420 ha         1 RRI       0.113000
     18 H7          31.6420    66.5280    73.7100 ha         1 RRI       0.114000
     19 H8          30.1340    68.3930    74.3010 ha         1 RRI       0.115000
     20 H9          27.7750    68.3960    73.5490 ha         1 RRI       0.150000
     21 H10         26.0080    64.2730    71.9960 h1         1 RRI       0.048700
     22 H11         28.4760    64.4520    70.3180 hc         1 RRI       0.060200
     23 H4          26.1850    64.9910    70.3910 h1         1 RRI       0.048700
@<TRIPOS>BOND
     1     1     2 1   
     2     1    13 1   
     3     1    14 1   
     4     1    15 1   
     5     2    11 1   
     6     2    12 2   
     7     3     4 1   
     8     3    11 1   
     9     3    21 1   
    10     3    23 1   
    11     4     5 1   
    12     4    16 1   
    13     4    22 1   
    14     5     6 ar  
    15     5    10 ar  
    16     6     7 ar  
    17     6    17 1   
    18     7     8 ar  
    19     7    18 1   
    20     8     9 ar  
    21     8    19 1   
    22     9    10 ar  
    23     9    20 1   
    24    10    11 1   
@<TRIPOS>SUBSTRUCTURE
     1 RRI         1 TEMP              0 ****  ****    0 ROOT
