@<TRIPOS>MOLECULE
RRI
   23    24     1     0     0
SMALL
No Charge or Current Charge


@<TRIPOS>ATOM
      1 C01         24.2300    66.6170    71.5030 c3         1 RRI      -0.173100
      2 C02         25.5390    67.0860    72.1510 c          1 RRI       0.608100
      3 C05         26.6290    64.9690    71.2880 c5         1 RRI       0.102000
      4 C06         28.1010    64.3970    71.4020 c5         1 RRI      -0.036100
      5 C07         28.8140    65.4650    72.2090 ca         1 RRI      -0.139300
      6 C08         30.1630    65.4520    72.5990 ca         1 RRI      -0.074000
      7 C09         30.6650    66.5320    73.3510 ca         1 RRI      -0.136000
      8 C10         29.8200    67.6050    73.7030 ca         1 RRI      -0.089000
      9 C11         28.4680    67.6050    73.3040 ca         1 RRI      -0.116000
     10 C12         27.9880    66.5150    72.5530 ca         1 RRI      -0.028000
     11 N04         26.6920    66.2620    72.0300 n          1 RRI      -0.227400
     12 O03         25.5570    68.1520    72.7520 o          1 RRI      -0.592100
     13 H1          23.4100    67.3270    71.6580 hc         1 RRI       0.063033
     14 H2          24.3970    66.4330    70.4360 hc         1 RRI       0.063033
     15 H3          23.9710    65.6230    71.8840 hc         1 RRI       0.063033
     16 H5          28.1140    63.4250    71.9060 hc         1 RRI       0.060200
     17 H6          30.8100    64.6210    72.3250 ha         1 RRI       0.113000
     18 H7          31.7070    66.5370    73.6610 ha         1 RRI       0.114000
     19 H8          30.2130    68.4370    74.2840 ha         1 RRI       0.115000
     20 H9          27.8300    68.4380    73.5830 ha         1 RRI       0.150000
     21 H10         25.9040    64.2820    71.7440 h1         1 RRI       0.048700
     22 H11         28.5540    64.2590    70.4140 hc         1 RRI       0.060200
     23 H4          26.3480    65.1250    70.2380 h1         1 RRI       0.048700
@<TRIPOS>BOND
     1     1     2 1   
     2     1    13 1   
     3     1    14 1   
     4     1    15 1   
     5     2    11 1   
     6     2    12 2   
     7     3     4 1   
     8     3    11 1   
     9     3    21 1   
    10     3    23 1   
    11     4     5 1   
    12     4    16 1   
    13     4    22 1   
    14     5     6 ar  
    15     5    10 ar  
    16     6     7 ar  
    17     6    17 1   
    18     7     8 ar  
    19     7    18 1   
    20     8     9 ar  
    21     8    19 1   
    22     9    10 ar  
    23     9    20 1   
    24    10    11 1   
@<TRIPOS>SUBSTRUCTURE
     1 RRI         1 TEMP              0 ****  ****    0 ROOT
