@<TRIPOS>MOLECULE
RRJ
   23    23     1     0     0
SMALL
No Charge or Current Charge


@<TRIPOS>ATOM
      1 O1         -65.9870   -19.8110   184.9420 oh         1 RRJ      -0.723000
      2 C1         -65.4440   -18.5990   184.4270 c6         1 RRJ       0.356300
      3 O5         -66.1570   -17.5080   185.0370 os         1 RRJ      -0.460000
      4 C5         -65.9790   -17.3640   186.4770 c6         1 RRJ       0.162300
      5 C6         -66.9040   -16.2100   186.9890 c3         1 RRJ       0.168600
      6 O6         -68.3030   -16.4530   186.7340 oh         1 RRJ      -0.714000
      7 C4         -64.4750   -17.1440   186.8190 c6         1 RRJ       0.109300
      8 Cl4        -63.8480   -15.5070   186.1800 cl         1 RRJ      -0.266000
      9 C3         -63.6490   -18.3330   186.2470 c6         1 RRJ       0.179300
     10 O3         -62.2370   -18.1820   186.4910 oh         1 RRJ      -0.706000
     11 C2         -63.9060   -18.4970   184.7170 c6         1 RRJ       0.109300
     12 O2         -63.1940   -19.6510   184.2090 oh         1 RRJ      -0.710000
     13 H1         -65.6000   -18.5610   183.3370 h2         1 RRJ       0.063700
     14 H5         -66.3160   -18.2850   186.9740 h1         1 RRJ       0.068700
     15 H61        -66.7350   -16.0910   188.0680 h1         1 RRJ       0.037200
     16 H62        -66.5970   -15.2730   186.5060 h1         1 RRJ       0.037200
     17 HO6        -68.7920   -15.6430   187.0150 ho         1 RRJ       0.507000
     18 H4         -64.3460   -17.0970   187.9090 h1         1 RRJ       0.092700
     19 H3         -64.0040   -19.2480   186.7470 h1         1 RRJ       0.062700
     20 HO3        -61.8050   -18.7530   185.8100 ho         1 RRJ       0.526000
     21 H2         -63.5410   -17.5910   184.2100 h1         1 RRJ       0.067700
     22 HO2        -63.8230   -20.4090   184.3070 ho         1 RRJ       0.511000
     23 HO1        -66.9570   -19.7270   184.8080 ho         1 RRJ       0.519000
@<TRIPOS>BOND
     1     1     2 1   
     2     1    23 1   
     3     2     3 1   
     4     2    11 1   
     5     2    13 1   
     6     3     4 1   
     7     4     5 1   
     8     4     7 1   
     9     4    14 1   
    10     5     6 1   
    11     5    15 1   
    12     5    16 1   
    13     6    17 1   
    14     7     8 1   
    15     7     9 1   
    16     7    18 1   
    17     9    10 1   
    18     9    11 1   
    19     9    19 1   
    20    10    20 1   
    21    11    12 1   
    22    11    21 1   
    23    12    22 1   
@<TRIPOS>SUBSTRUCTURE
     1 RRJ         1 TEMP              0 ****  ****    0 ROOT
