@<TRIPOS>MOLECULE
RRJ
   23    23     1     0     0
SMALL
bcc


@<TRIPOS>ATOM
      1 O1         -66.0120   -19.8440   185.1310 oh         1 RRJ      -0.600800
      2 C1         -65.5470   -18.6650   184.5670 c6         1 RRJ       0.309900
      3 O5         -66.1750   -17.5260   185.0950 os         1 RRJ      -0.413600
      4 C5         -65.9690   -17.3160   186.4750 c6         1 RRJ       0.139100
      5 C6         -66.8160   -16.1400   186.9150 c3         1 RRJ       0.145400
      6 O6         -68.1670   -16.5260   186.8660 oh         1 RRJ      -0.591800
      7 C4         -64.4900   -17.1440   186.7870 c6         1 RRJ       0.032700
      8 CL4        -63.8560   -15.6220   186.0580 cl         1 RRJ      -0.189400
      9 C3         -63.7170   -18.3420   186.2620 c6         1 RRJ       0.156100
     10 O3         -62.3520   -18.1450   186.4840 oh         1 RRJ      -0.583800
     11 C2         -64.0340   -18.5750   184.7880 c6         1 RRJ       0.086100
     12 O2         -63.3560   -19.7450   184.4030 oh         1 RRJ      -0.587800
     13 H1         -65.7680   -18.6250   183.4930 h2         1 RRJ       0.063700
     14 H5         -66.2950   -18.1910   187.0570 h1         1 RRJ       0.068700
     15 H61        -66.5090   -15.8620   187.9320 h1         1 RRJ       0.037200
     16 H62        -66.6150   -15.2780   186.2700 h1         1 RRJ       0.037200
     17 HO6        -68.7000   -15.7630   187.1020 ho         1 RRJ       0.408000
     18 H4         -64.3460   -17.0480   187.8640 h1         1 RRJ       0.092700
     19 H3         -64.0880   -19.2070   186.8360 h1         1 RRJ       0.062700
     20 HO3        -61.8820   -18.8830   186.0830 ho         1 RRJ       0.427000
     21 H2         -63.6760   -17.7070   184.2200 h1         1 RRJ       0.067700
     22 HO2        -63.3180   -19.7850   183.4450 ho         1 RRJ       0.412000
     23 HO1        -66.9120   -20.0000   184.8300 ho         1 RRJ       0.420000
@<TRIPOS>BOND
     1     1     2 1   
     2     1    23 1   
     3     2     3 1   
     4     2    11 1   
     5     2    13 1   
     6     3     4 1   
     7     4     5 1   
     8     4     7 1   
     9     4    14 1   
    10     5     6 1   
    11     5    15 1   
    12     5    16 1   
    13     6    17 1   
    14     7     8 1   
    15     7     9 1   
    16     7    18 1   
    17     9    10 1   
    18     9    11 1   
    19     9    19 1   
    20    10    20 1   
    21    11    12 1   
    22    11    21 1   
    23    12    22 1   
@<TRIPOS>SUBSTRUCTURE
     1 RRJ         1 TEMP              0 ****  ****    0 ROOT
