@<TRIPOS>MOLECULE
RRK
   32    33     1     0     0
SMALL
No Charge or Current Charge


@<TRIPOS>ATOM
      1 C1          -0.4340    -0.1140     0.6630 c3         1 RRK       0.198300
      2 C2          -1.9270     0.0560     0.3550 ca         1 RRK      -0.090800
      3 C3          -2.7310    -1.0300    -0.0630 ca         1 RRK      -0.104000
      4 C4          -4.0950    -0.8390    -0.3450 ca         1 RRK      -0.107500
      5 C5          -4.6710     0.4350    -0.2150 ca         1 RRK      -0.109500
      6 C6          -3.8810     1.5200     0.1970 ca         1 RRK      -0.107500
      7 C7          -2.5170     1.3320     0.4800 ca         1 RRK      -0.104000
      8 C8           0.4610    -0.0460    -0.6320 c3         1 RRK       0.198300
      9 C9           1.9590     0.1060    -0.3330 ca         1 RRK      -0.090800
     10 C10          2.7420    -0.9880     0.1000 ca         1 RRK      -0.104000
     11 C11          4.1120    -0.8230     0.3690 ca         1 RRK      -0.107500
     12 C12          4.7160     0.4350     0.2080 ca         1 RRK      -0.109500
     13 C13          3.9470     1.5290    -0.2210 ca         1 RRK      -0.107500
     14 C14          2.5760     1.3650    -0.4900 ca         1 RRK      -0.104000
     15 N1           0.2100    -1.1620    -1.5810 n8         1 RRK      -0.995700
     16 N2          -0.1980    -1.3170     1.5050 n8         1 RRK      -0.995700
     17 H1          -0.1320     0.7490     1.2760 h1         1 RRK       0.071200
     18 H2          -2.3070    -2.0250    -0.1710 ha         1 RRK       0.108750
     19 H3          -4.7060    -1.6800    -0.6650 ha         1 RRK       0.111750
     20 H4          -5.7260     0.5820    -0.4340 ha         1 RRK       0.112500
     21 H5          -4.3250     2.5090     0.2980 ha         1 RRK       0.111750
     22 H6          -1.9170     2.1830     0.7970 ha         1 RRK       0.108750
     23 H7           0.1480     0.8700    -1.1550 h1         1 RRK       0.071200
     24 H8           2.2890    -1.9670     0.2330 ha         1 RRK       0.108750
     25 H9           4.7060    -1.6710     0.7030 ha         1 RRK       0.111750
     26 H10          5.7760     0.5620     0.4170 ha         1 RRK       0.112500
     27 H11          4.4120     2.5040    -0.3460 ha         1 RRK       0.111750
     28 H12          1.9940     2.2220    -0.8220 ha         1 RRK       0.108750
     29 H13          0.5070    -2.0300    -1.1260 hn         1 RRK       0.398500
     30 H14         -0.8040    -1.2720    -1.6830 hn         1 RRK       0.398500
     31 H16         -0.7710    -1.2360     2.3520 hn         1 RRK       0.398500
     32 H17         -0.5960    -2.1310     1.0290 hn         1 RRK       0.398500
@<TRIPOS>BOND
     1     1     2 1   
     2     1     8 1   
     3     1    16 1   
     4     1    17 1   
     5     2     3 ar  
     6     2     7 ar  
     7     3     4 ar  
     8     3    18 1   
     9     4     5 ar  
    10     4    19 1   
    11     5     6 ar  
    12     5    20 1   
    13     6     7 ar  
    14     6    21 1   
    15     7    22 1   
    16     8     9 1   
    17     8    15 1   
    18     8    23 1   
    19     9    10 ar  
    20     9    14 ar  
    21    10    11 ar  
    22    10    24 1   
    23    11    12 ar  
    24    11    25 1   
    25    12    13 ar  
    26    12    26 1   
    27    13    14 ar  
    28    13    27 1   
    29    14    28 1   
    30    15    29 1   
    31    15    30 1   
    32    16    31 1   
    33    16    32 1   
@<TRIPOS>SUBSTRUCTURE
     1 RRK         1 TEMP              0 ****  ****    0 ROOT
