@<TRIPOS>MOLECULE
RRK
   32    33     1     0     0
SMALL
abcg2


@<TRIPOS>ATOM
      1 C1          -0.4080    -0.0010     0.6810 c3         1 RRK       0.198300
      2 C2          -1.8850     0.1230     0.3580 ca         1 RRK      -0.090800
      3 C3          -2.7320    -0.9810     0.3200 ca         1 RRK      -0.104000
      4 C4          -4.0720    -0.8390    -0.0210 ca         1 RRK      -0.107500
      5 C5          -4.5880     0.4130    -0.3260 ca         1 RRK      -0.109500
      6 C6          -3.7530     1.5230    -0.2880 ca         1 RRK      -0.107500
      7 C7          -2.4150     1.3740     0.0490 ca         1 RRK      -0.104000
      8 C8           0.4110    -0.1350    -0.6350 c3         1 RRK       0.198300
      9 C9           1.8880     0.0240    -0.3430 ca         1 RRK      -0.090800
     10 C10          2.8020    -1.0110    -0.5110 ca         1 RRK      -0.104000
     11 C11          4.1490    -0.8250    -0.2220 ca         1 RRK      -0.107500
     12 C12          4.6060     0.4020     0.2340 ca         1 RRK      -0.109500
     13 C13          3.7040     1.4470     0.3970 ca         1 RRK      -0.107500
     14 C14          2.3610     1.2550     0.1090 ca         1 RRK      -0.104000
     15 N1           0.1360    -1.3340    -1.3990 n8         1 RRK      -0.995700
     16 N2          -0.0410    -1.0600     1.5980 n8         1 RRK      -0.995700
     17 H1          -0.1030     0.9420     1.1450 h1         1 RRK       0.071200
     18 H2          -2.3590    -1.9670     0.5700 ha         1 RRK       0.108750
     19 H3          -4.7150    -1.7100    -0.0460 ha         1 RRK       0.111750
     20 H4          -5.6330     0.5250    -0.5850 ha         1 RRK       0.112500
     21 H5          -4.1450     2.5060    -0.5160 ha         1 RRK       0.111750
     22 H6          -1.7720     2.2470     0.0830 ha         1 RRK       0.108750
     23 H7           0.1180     0.7090    -1.2690 h1         1 RRK       0.071200
     24 H8           2.4740    -1.9720    -0.8820 ha         1 RRK       0.108750
     25 H9           4.8440    -1.6440    -0.3600 ha         1 RRK       0.111750
     26 H10          5.6560     0.5480     0.4560 ha         1 RRK       0.112500
     27 H11          4.0480     2.4130     0.7430 ha         1 RRK       0.111750
     28 H12          1.6710     2.0830     0.2320 ha         1 RRK       0.108750
     29 H13          0.2410    -2.1710    -0.8400 hn         1 RRK       0.398500
     30 H14         -0.8210    -1.3250    -1.7260 hn         1 RRK       0.398500
     31 H16         -0.5580    -0.9610     2.4630 hn         1 RRK       0.398500
     32 H17         -0.2940    -1.9700     1.2320 hn         1 RRK       0.398500
@<TRIPOS>BOND
     1     1     2 1   
     2     1     8 1   
     3     1    16 1   
     4     1    17 1   
     5     2     3 ar  
     6     2     7 ar  
     7     3     4 ar  
     8     3    18 1   
     9     4     5 ar  
    10     4    19 1   
    11     5     6 ar  
    12     5    20 1   
    13     6     7 ar  
    14     6    21 1   
    15     7    22 1   
    16     8     9 1   
    17     8    15 1   
    18     8    23 1   
    19     9    10 ar  
    20     9    14 ar  
    21    10    11 ar  
    22    10    24 1   
    23    11    12 ar  
    24    11    25 1   
    25    12    13 ar  
    26    12    26 1   
    27    13    14 ar  
    28    13    27 1   
    29    14    28 1   
    30    15    29 1   
    31    15    30 1   
    32    16    31 1   
    33    16    32 1   
@<TRIPOS>SUBSTRUCTURE
     1 RRK         1 TEMP              0 ****  ****    0 ROOT
