@<TRIPOS>MOLECULE
RRO
   14    14     1     0     0
SMALL
No Charge or Current Charge


@<TRIPOS>ATOM
      1 OAA          1.5800     2.1480    -0.0050 o          1 RRO      -0.671000
      2 CAH          0.3560     2.1650    -0.0060 c          1 RRO       0.719200
      3 OAD         -0.2720     3.2190    -0.0080 o          1 RRO      -0.671000
      4 CAI         -0.4450     0.8720    -0.0040 cc         1 RRO       0.054400
      5 CAJ          0.0540    -0.4290    -0.0010 cd         1 RRO      -0.269500
      6 Br           1.9000    -0.8940     0.0010 br         1 RRO      -0.043700
      7 CAL         -0.8960    -1.5740     0.0010 c          1 RRO       0.591200
      8 OAC         -0.5600    -2.7480     0.0030 o          1 RRO      -0.564000
      9 NAG         -2.2130    -1.2230    -0.0010 ns         1 RRO      -0.471500
     10 CAK         -2.7470     0.0210    -0.0030 c          1 RRO       0.609000
     11 OAB         -3.9450     0.2280    -0.0040 o          1 RRO      -0.601000
     12 NAF         -1.8310     1.0210    -0.0050 ns         1 RRO      -0.492600
     13 H3          -2.8720    -1.9840     0.0010 hn         1 RRO       0.319500
     14 H2          -2.2230     1.9580    -0.0070 hn         1 RRO       0.491000
@<TRIPOS>BOND
     1     1     2 1   
     2     2     3 1   
     3     2     4 1   
     4     4     5 2   
     5     4    12 1   
     6     5     6 1   
     7     5     7 1   
     8     7     8 2   
     9     7     9 1   
    10     9    10 1   
    11     9    13 1   
    12    10    11 2   
    13    10    12 1   
    14    12    14 1   
@<TRIPOS>SUBSTRUCTURE
     1 RRO         1 TEMP              0 ****  ****    0 ROOT
