@<TRIPOS>MOLECULE
RRO
   14    14     1     0     0
SMALL
bcc


@<TRIPOS>ATOM
      1 OAA          1.5580     2.1100     0.0700 o          1 RRO      -0.776300
      2 CAH          0.3320     2.1730    -0.0010 c          1 RRO       0.929800
      3 OAD         -0.4060     3.1700    -0.0690 o          1 RRO      -0.776300
      4 CAI         -0.4470     0.8330    -0.0040 cc         1 RRO       0.054400
      5 CAJ          0.0410    -0.4290    -0.0070 cd         1 RRO      -0.269500
      6 BR           1.8520    -0.8900    -0.0300 br         1 RRO      -0.043700
      7 CAL         -0.8710    -1.5670    -0.0020 c          1 RRO       0.733700
      8 OAC         -0.5360    -2.7350    -0.0040 o          1 RRO      -0.639500
      9 NAG         -2.2070    -1.2210     0.0060 ns         1 RRO      -0.605500
     10 CAK         -2.7390     0.0430     0.0030 c          1 RRO       0.818500
     11 OAB         -3.9340     0.2580     0.0040 o          1 RRO      -0.676500
     12 NAF         -1.7950     1.0240    -0.0010 ns         1 RRO      -0.446100
     13 H3          -2.8720    -1.9850     0.0090 hn         1 RRO       0.319500
     14 H2          -2.0880     1.9960    -0.0130 hn         1 RRO       0.377500
@<TRIPOS>BOND
     1     1     2 1   
     2     2     3 1   
     3     2     4 1   
     4     4     5 2   
     5     4    12 1   
     6     5     6 1   
     7     5     7 1   
     8     7     8 2   
     9     7     9 1   
    10     9    10 1   
    11     9    13 1   
    12    10    11 2   
    13    10    12 1   
    14    12    14 1   
@<TRIPOS>SUBSTRUCTURE
     1 RRO         1 TEMP              0 ****  ****    0 ROOT
