@<TRIPOS>MOLECULE
RRQ
   86    90     1     0     0
SMALL
abcg2


@<TRIPOS>ATOM
      1 CBT          1.4770    -1.4250     2.9270 c3         1 RRQ       0.238100
      2 NBP          1.5090    -2.5450     2.0370 nu         1 RRQ      -0.989200
      3 CBL          2.1030    -2.5410     0.8230 ca         1 RRQ       0.366000
      4 CBK          2.7890    -1.4040     0.3630 ca         1 RRQ      -0.240000
      5 CBM          2.0450    -3.6880    -0.0190 ca         1 RRQ      -0.213600
      6 CBQ          1.3240    -4.9660     0.3670 c          1 RRQ       0.719600
      7 OBS          0.8010    -5.0220     1.5080 o          1 RRQ      -0.715500
      8 OBR          1.3120    -5.8890    -0.4680 o          1 RRQ      -0.715500
      9 CBN          2.6760    -3.6250    -1.2530 ca         1 RRQ      -0.051000
     10 CBO          3.3350    -2.4910    -1.7040 ca         1 RRQ      -0.198000
     11 CBJ          3.3790    -1.3650    -0.8900 ca         1 RRQ      -0.112300
     12 CBB          4.0430    -0.1060    -1.3960 c3         1 RRQ       0.271100
     13 NAA          3.2700     1.1200    -1.1990 n3         1 RRQ      -0.777500
     14 CBC          3.5370     1.9730    -0.0390 c3         1 RRQ       0.240800
     15 CBD          4.3490     3.2210    -0.3630 c6         1 RRQ      -0.078700
     16 CBE          5.7130     2.8920    -0.9650 c6         1 RRQ      -0.108900
     17 CBF          6.5370     4.1610    -1.1730 c6         1 RRQ       0.148800
     18 NBG          6.6890     4.9710     0.0260 n7         1 RRQ      -0.849400
     19 CBH          5.4010     5.2870     0.6210 c6         1 RRQ       0.148800
     20 CBI          4.5300     4.0640     0.8980 c6         1 RRQ      -0.108900
     21 SAB          1.9080     1.3450    -2.0780 sy         1 RRQ       1.188600
     22 OAC          1.4710     2.7150    -1.8550 o          1 RRQ      -0.558000
     23 OAD          2.1640     0.8790    -3.4310 o          1 RRQ      -0.558000
     24 CAE          0.6760     0.2740    -1.3750 ca         1 RRQ      -0.233500
     25 CAJ          0.0580     0.6520    -0.1880 ca         1 RRQ      -0.034500
     26 CAI         -0.7870    -0.2390     0.4460 ca         1 RRQ      -0.032000
     27 CAF          0.4370    -0.9610    -1.9520 ca         1 RRQ      -0.034500
     28 CAG         -0.4050    -1.8570    -1.3110 ca         1 RRQ      -0.032000
     29 CAH         -1.0020    -1.4900    -0.1170 ca         1 RRQ      -0.223500
     30 SAK         -2.1200    -2.6160     0.6850 sy         1 RRQ       1.178600
     31 OAL         -1.9910    -3.8930     0.0010 o          1 RRQ      -0.513500
     32 OAM         -1.9120    -2.5560     2.1220 o          1 RRQ      -0.513500
     33 NAN         -3.6080    -1.9890     0.3840 n3         1 RRQ      -0.791500
     34 CAQ         -4.0160    -1.9170    -1.0270 c5         1 RRQ       0.233500
     35 CAR         -3.7850    -0.5420    -1.7000 c5         1 RRQ      -0.095400
     36 CAS         -5.0780    -0.2240    -2.4580 c5         1 RRQ      -0.080400
     37 CAT         -6.1690    -0.9340    -1.6610 c5         1 RRQ      -0.080400
     38 CAU         -5.5070    -2.2490    -1.2580 c5         1 RRQ      -0.095400
     39 CAO         -4.4080    -1.4200     1.4720 c3         1 RRQ       0.286100
     40 CAP         -3.9900    -0.0630     1.9900 ca         1 RRQ      -0.116300
     41 CAV         -3.2250     0.0520     3.1480 ca         1 RRQ      -0.082500
     42 CAW         -2.8150     1.2910     3.6210 ca         1 RRQ      -0.114500
     43 CAX         -3.1850     2.4330     2.9310 ca         1 RRQ       0.124000
     44 CL          -2.6670     3.9850     3.5030 cl         1 RRQ      -0.215000
     45 CAY         -3.9800     2.3540     1.7980 ca         1 RRQ      -0.114500
     46 CAZ         -4.3830     1.1070     1.3460 ca         1 RRQ      -0.082500
     47 H1           0.9340    -1.7120     3.8250 h1         1 RRQ       0.012033
     48 H2           2.4790    -1.1050     3.2320 h1         1 RRQ       0.012033
     49 H3           0.9730    -0.5520     2.5000 h1         1 RRQ       0.012033
     50 H4           0.9850    -3.3910     2.2340 hn         1 RRQ       0.563000
     51 H5           2.8160    -0.5210     0.9900 ha         1 RRQ       0.085000
     52 H7           2.6270    -4.4970    -1.8920 ha         1 RRQ       0.131000
     53 H8           3.7880    -2.4730    -2.6880 ha         1 RRQ       0.094000
     54 H9           4.9940     0.0540    -0.8870 h1         1 RRQ       0.057700
     55 H10          4.2870    -0.2180    -2.4530 h1         1 RRQ       0.057700
     56 H11          2.6060     2.2570     0.4560 h1         1 RRQ       0.051200
     57 H12          4.0830     1.3630     0.6840 h1         1 RRQ       0.051200
     58 H13          3.7870     3.8170    -1.0910 hc         1 RRQ       0.071700
     59 H14          6.2570     2.2170    -0.2910 hc         1 RRQ       0.045450
     60 H15          5.6000     2.3700    -1.9190 hc         1 RRQ       0.045450
     61 H16          7.5280     3.9100    -1.5560 h1         1 RRQ       0.048950
     62 H17          6.0530     4.7790    -1.9380 h1         1 RRQ       0.048950
     63 H18          7.2400     4.4510     0.7010 hn         1 RRQ       0.398000
     64 H20          5.5670     5.8480     1.5430 h1         1 RRQ       0.048950
     65 H21          4.8690     5.9580    -0.0640 h1         1 RRQ       0.048950
     66 H22          3.5570     4.3800     1.2870 hc         1 RRQ       0.045450
     67 H23          5.0010     3.4570     1.6810 hc         1 RRQ       0.045450
     68 H24          0.2310     1.6250     0.2500 ha         1 RRQ       0.132500
     69 H25         -1.2630     0.0430     1.3750 ha         1 RRQ       0.140000
     70 H26          0.9150    -1.2460    -2.8770 ha         1 RRQ       0.132500
     71 H27         -0.5770    -2.8320    -1.7420 ha         1 RRQ       0.140000
     72 H28         -3.4270    -2.6720    -1.5460 h1         1 RRQ       0.077700
     73 H29         -3.5850     0.2190    -0.9470 hc         1 RRQ       0.055450
     74 H30         -2.9150    -0.5590    -2.3560 hc         1 RRQ       0.055450
     75 H31         -5.2490     0.8490    -2.5570 hc         1 RRQ       0.039950
     76 H32         -5.0350    -0.6360    -3.4700 hc         1 RRQ       0.039950
     77 H33         -6.4450    -0.3470    -0.7800 hc         1 RRQ       0.039950
     78 H34         -7.0840    -1.0860    -2.2350 hc         1 RRQ       0.039950
     79 H35         -5.5730    -2.9520    -2.0910 hc         1 RRQ       0.055450
     80 H36         -5.9730    -2.7400    -0.4030 hc         1 RRQ       0.055450
     81 H37         -5.4280    -1.3590     1.0940 h1         1 RRQ       0.061200
     82 H38         -4.4460    -2.1290     2.2970 h1         1 RRQ       0.061200
     83 H39         -2.9350    -0.8340     3.6940 ha         1 RRQ       0.133500
     84 H40         -2.2150     1.3600     4.5190 ha         1 RRQ       0.128000
     85 H41         -4.2900     3.2500     1.2780 ha         1 RRQ       0.128000
     86 H42         -5.0290     1.0600     0.4780 ha         1 RRQ       0.133500
@<TRIPOS>BOND
     1     1     2 1   
     2     1    47 1   
     3     1    48 1   
     4     1    49 1   
     5     2     3 1   
     6     2    50 1   
     7     3     4 ar  
     8     3     5 ar  
     9     4    11 ar  
    10     4    51 1   
    11     5     6 1   
    12     5     9 ar  
    13     6     7 1   
    14     6     8 1   
    15     9    10 ar  
    16     9    52 1   
    17    10    11 ar  
    18    10    53 1   
    19    11    12 1   
    20    12    13 1   
    21    12    54 1   
    22    12    55 1   
    23    13    14 1   
    24    13    21 1   
    25    14    15 1   
    26    14    56 1   
    27    14    57 1   
    28    15    16 1   
    29    15    20 1   
    30    15    58 1   
    31    16    17 1   
    32    16    59 1   
    33    16    60 1   
    34    17    18 1   
    35    17    61 1   
    36    17    62 1   
    37    18    19 1   
    38    18    63 1   
    39    19    20 1   
    40    19    64 1   
    41    19    65 1   
    42    20    66 1   
    43    20    67 1   
    44    21    22 2   
    45    21    23 2   
    46    21    24 1   
    47    24    25 ar  
    48    24    27 ar  
    49    25    26 ar  
    50    25    68 1   
    51    26    29 ar  
    52    26    69 1   
    53    27    28 ar  
    54    27    70 1   
    55    28    29 ar  
    56    28    71 1   
    57    29    30 1   
    58    30    31 2   
    59    30    32 2   
    60    30    33 1   
    61    33    34 1   
    62    33    39 1   
    63    34    35 1   
    64    34    38 1   
    65    34    72 1   
    66    35    36 1   
    67    35    73 1   
    68    35    74 1   
    69    36    37 1   
    70    36    75 1   
    71    36    76 1   
    72    37    38 1   
    73    37    77 1   
    74    37    78 1   
    75    38    79 1   
    76    38    80 1   
    77    39    40 1   
    78    39    81 1   
    79    39    82 1   
    80    40    41 ar  
    81    40    46 ar  
    82    41    42 ar  
    83    41    83 1   
    84    42    43 ar  
    85    42    84 1   
    86    43    44 1   
    87    43    45 ar  
    88    45    46 ar  
    89    45    85 1   
    90    46    86 1   
@<TRIPOS>SUBSTRUCTURE
     1 RRQ         1 TEMP              0 ****  ****    0 ROOT
