@<TRIPOS>MOLECULE
RRQ
   86    90     1     0     0
SMALL
No Charge or Current Charge


@<TRIPOS>ATOM
      1 CBT          2.6070    -3.0500     2.4480 c3         1 RRQ       0.238100
      2 NBP          2.9830    -4.0760     1.4690 nu         1 RRQ      -0.989200
      3 CBL          3.0890    -3.8640     0.1010 ca         1 RRQ       0.366000
      4 CBK          3.8220    -2.7530    -0.3530 ca         1 RRQ      -0.240000
      5 CBM          2.4760    -4.7390    -0.8240 ca         1 RRQ      -0.213600
      6 CBQ          1.6750    -5.9490    -0.3890 c          1 RRQ       0.719600
      7 OBS          1.8470    -6.4120     0.7310 o          1 RRQ      -0.715500
      8 OBR          0.8860    -6.4340    -1.1860 o          1 RRQ      -0.715500
      9 CBN          2.6130    -4.4600    -2.2030 ca         1 RRQ      -0.051000
     10 CBO          3.3280    -3.3360    -2.6440 ca         1 RRQ      -0.198000
     11 CBJ          3.9270    -2.4550    -1.7260 ca         1 RRQ      -0.112300
     12 CBB          4.6990    -1.2230    -2.2290 c3         1 RRQ       0.271100
     13 NAA          4.1170     0.1010    -1.8850 n3         1 RRQ      -0.777500
     14 CBC          4.2270     0.4580    -0.4500 c3         1 RRQ       0.240800
     15 CBD          4.3280     1.9800    -0.1230 c6         1 RRQ      -0.078700
     16 CBE          5.5950     2.6350    -0.7430 c6         1 RRQ      -0.108900
     17 CBF          5.6980     4.1310    -0.3580 c6         1 RRQ       0.148800
     18 NBG          5.6740     4.3040     1.1150 n7         1 RRQ      -0.849400
     19 CBH          4.4510     3.7370     1.7350 c6         1 RRQ       0.148800
     20 CBI          4.3130     2.2300     1.4100 c6         1 RRQ      -0.108900
     21 SAB          2.6590     0.5300    -2.6840 sy         1 RRQ       1.188600
     22 OAC          2.8030     1.9370    -3.0790 o          1 RRQ      -0.558000
     23 OAD          2.4110    -0.5020    -3.6970 o          1 RRQ      -0.558000
     24 CAE          1.3850     0.3550    -1.4080 ca         1 RRQ      -0.233500
     25 CAJ          0.8490     1.4920    -0.7670 ca         1 RRQ      -0.034500
     26 CAI         -0.1110     1.3450     0.2490 ca         1 RRQ      -0.032000
     27 CAF          0.9240    -0.9260    -1.0420 ca         1 RRQ      -0.034500
     28 CAG         -0.0320    -1.0750    -0.0240 ca         1 RRQ      -0.032000
     29 CAH         -0.5510     0.0610     0.6300 ca         1 RRQ      -0.223500
     30 SAK         -1.7970    -0.1140     1.9240 sy         1 RRQ       1.178600
     31 OAL         -1.9300    -1.5270     2.2940 o          1 RRQ      -0.513500
     32 OAM         -1.5470     0.9400     2.9130 o          1 RRQ      -0.513500
     33 NAN         -3.2370     0.3320     1.1300 n3         1 RRQ      -0.791500
     34 CAQ         -3.3860     0.0730    -0.3430 c5         1 RRQ       0.233500
     35 CAR         -4.6620     0.7280    -0.9280 c5         1 RRQ      -0.095400
     36 CAS         -4.6420     0.0920    -2.3420 c5         1 RRQ      -0.080400
     37 CAT         -4.2440    -1.3990    -2.0720 c5         1 RRQ      -0.080400
     38 CAU         -3.7010    -1.4240    -0.6060 c5         1 RRQ      -0.095400
     39 CAO         -4.4240     0.2620     2.0240 c3         1 RRQ       0.286100
     40 CAP         -5.2680     1.5370     2.0210 ca         1 RRQ      -0.116300
     41 CAV         -4.6510     2.8060     2.0400 ca         1 RRQ      -0.082500
     42 CAW         -5.4310     3.9760     2.0350 ca         1 RRQ      -0.114500
     43 CAX         -6.8310     3.8840     2.0150 ca         1 RRQ       0.124000
     44 Cl          -7.8070     5.3480     2.0080 cl         1 RRQ      -0.215000
     45 CAY         -7.4550     2.6270     2.0040 ca         1 RRQ      -0.114500
     46 CAZ         -6.6760     1.4560     2.0080 ca         1 RRQ      -0.082500
     47 H1           2.5510    -3.4900     3.4520 h1         1 RRQ       0.012033
     48 H2           3.3460    -2.2380     2.4640 h1         1 RRQ       0.012033
     49 H3           1.6250    -2.6270     2.1950 h1         1 RRQ       0.012033
     50 H4           2.5610    -5.0040     1.6340 hn         1 RRQ       0.563000
     51 H5           4.3140    -2.1160     0.3730 ha         1 RRQ       0.085000
     52 H7           2.1590    -5.1160    -2.9440 ha         1 RRQ       0.131000
     53 H8           3.4080    -3.1450    -3.7120 ha         1 RRQ       0.094000
     54 H9           5.7170    -1.2850    -1.8230 h1         1 RRQ       0.057700
     55 H10          4.8200    -1.3020    -3.3180 h1         1 RRQ       0.057700
     56 H11          3.3920     0.0310     0.1210 h1         1 RRQ       0.051200
     57 H12          5.1380     0.0050    -0.0350 h1         1 RRQ       0.051200
     58 H13          3.4460     2.4720    -0.5470 hc         1 RRQ       0.071700
     59 H14          6.4960     2.1050    -0.4060 hc         1 RRQ       0.045450
     60 H15          5.5710     2.5440    -1.8370 hc         1 RRQ       0.045450
     61 H16          6.6280     4.5530    -0.7660 h1         1 RRQ       0.048950
     62 H17          4.8590     4.6840    -0.8080 h1         1 RRQ       0.048950
     63 H18          6.4860     3.8120     1.5060 hn         1 RRQ       0.398000
     64 H20          4.4900     3.8780     2.8250 h1         1 RRQ       0.048950
     65 H21          3.5660     4.2760     1.3630 h1         1 RRQ       0.048950
     66 H22          3.3780     1.8480     1.8430 hc         1 RRQ       0.045450
     67 H23          5.1290     1.6740     1.8910 hc         1 RRQ       0.045450
     68 H24          1.1700     2.4920    -1.0500 ha         1 RRQ       0.132500
     69 H25         -0.5160     2.2320     0.7340 ha         1 RRQ       0.140000
     70 H26          1.3060    -1.8120    -1.5410 ha         1 RRQ       0.132500
     71 H27         -0.3650    -2.0750     0.2470 ha         1 RRQ       0.140000
     72 H28         -2.5070     0.4040    -0.9160 h1         1 RRQ       0.077700
     73 H29         -5.5820     0.4470    -0.4050 hc         1 RRQ       0.055450
     74 H30         -4.6030     1.8210    -0.9550 hc         1 RRQ       0.055450
     75 H31         -5.6100     0.1790    -2.8490 hc         1 RRQ       0.039950
     76 H32         -3.9010     0.5840    -2.9830 hc         1 RRQ       0.039950
     77 H33         -5.1010    -2.0730    -2.1830 hc         1 RRQ       0.039950
     78 H34         -3.4840    -1.7340    -2.7870 hc         1 RRQ       0.039950
     79 H35         -2.8170    -2.0610    -0.5070 hc         1 RRQ       0.055450
     80 H36         -4.4600    -1.8230     0.0750 hc         1 RRQ       0.055450
     81 H37         -5.0560    -0.5970     1.7670 h1         1 RRQ       0.061200
     82 H38         -4.1220     0.1010     3.0690 h1         1 RRQ       0.061200
     83 H39         -3.5660     2.8850     2.0540 ha         1 RRQ       0.133500
     84 H40         -4.9510     4.9510     2.0460 ha         1 RRQ       0.128000
     85 H41         -8.5400     2.5600     1.9900 ha         1 RRQ       0.128000
     86 H42         -7.1690     0.4850     1.9980 ha         1 RRQ       0.133500
@<TRIPOS>BOND
     1     1     2 1   
     2     1    47 1   
     3     1    48 1   
     4     1    49 1   
     5     2     3 1   
     6     2    50 1   
     7     3     4 ar  
     8     3     5 ar  
     9     4    11 ar  
    10     4    51 1   
    11     5     6 1   
    12     5     9 ar  
    13     6     7 1   
    14     6     8 1   
    15     9    10 ar  
    16     9    52 1   
    17    10    11 ar  
    18    10    53 1   
    19    11    12 1   
    20    12    13 1   
    21    12    54 1   
    22    12    55 1   
    23    13    14 1   
    24    13    21 1   
    25    14    15 1   
    26    14    56 1   
    27    14    57 1   
    28    15    16 1   
    29    15    20 1   
    30    15    58 1   
    31    16    17 1   
    32    16    59 1   
    33    16    60 1   
    34    17    18 1   
    35    17    61 1   
    36    17    62 1   
    37    18    19 1   
    38    18    63 1   
    39    19    20 1   
    40    19    64 1   
    41    19    65 1   
    42    20    66 1   
    43    20    67 1   
    44    21    22 2   
    45    21    23 2   
    46    21    24 1   
    47    24    25 ar  
    48    24    27 ar  
    49    25    26 ar  
    50    25    68 1   
    51    26    29 ar  
    52    26    69 1   
    53    27    28 ar  
    54    27    70 1   
    55    28    29 ar  
    56    28    71 1   
    57    29    30 1   
    58    30    31 2   
    59    30    32 2   
    60    30    33 1   
    61    33    34 1   
    62    33    39 1   
    63    34    35 1   
    64    34    38 1   
    65    34    72 1   
    66    35    36 1   
    67    35    73 1   
    68    35    74 1   
    69    36    37 1   
    70    36    75 1   
    71    36    76 1   
    72    37    38 1   
    73    37    77 1   
    74    37    78 1   
    75    38    79 1   
    76    38    80 1   
    77    39    40 1   
    78    39    81 1   
    79    39    82 1   
    80    40    41 ar  
    81    40    46 ar  
    82    41    42 ar  
    83    41    83 1   
    84    42    43 ar  
    85    42    84 1   
    86    43    44 1   
    87    43    45 ar  
    88    45    46 ar  
    89    45    85 1   
    90    46    86 1   
@<TRIPOS>SUBSTRUCTURE
     1 RRQ         1 TEMP              0 ****  ****    0 ROOT
