@<TRIPOS>MOLECULE
RRS
   69    71     1     0     0
SMALL
bcc


@<TRIPOS>ATOM
      1 C1          -2.7950     0.6120    -3.4470 c          1 RRS       0.667100
      2 O2          -3.0950    -0.4770    -2.9940 o          1 RRS      -0.570100
      3 N1          -3.4040     1.1730    -4.5090 ns         1 RRS      -0.450400
      4 O1          -4.5650     0.6390    -4.9820 oh         1 RRS      -0.388100
      5 C2          -1.6870     1.4690    -2.8740 c3         1 RRS      -0.161400
      6 C3          -0.4110     0.6530    -2.6130 c3         1 RRS      -0.128700
      7 C4           0.4540     1.5150    -1.7050 c          1 RRS       0.662100
      8 O3           1.1330     2.4350    -2.1280 o          1 RRS      -0.595100
      9 N2           0.3470     1.2300    -0.3860 ns         1 RRS      -0.586900
     10 C5           0.8350     2.0960     0.6610 c3         1 RRS       0.026700
     11 C6           2.1390     1.6230     1.3160 c          1 RRS       0.665100
     12 O4           2.6270     2.2860     2.2210 o          1 RRS      -0.619100
     13 N3           2.6930     0.5130     0.8120 ns         1 RRS      -0.560900
     14 C7           4.0260     0.0350     1.1240 c3         1 RRS       0.099000
     15 C8           4.1030    -1.3600     1.7410 c3         1 RRS      -0.089400
     16 C9           3.5630    -1.4720     3.1680 c3         1 RRS      -0.070400
     17 C10          2.0670    -1.7550     3.2520 c3         1 RRS      -0.078400
     18 C11          1.5170    -1.5690     4.6620 c3         1 RRS      -0.097400
     19 C12         -0.0070    -1.6010     4.7390 c3         1 RRS       0.049300
     20 N4          -0.6070    -0.6720     3.7970 na         1 RRS      -0.057400
     21 C13          0.2860     0.2900    -3.9240 c3         1 RRS      -0.066400
     22 C14          1.1930    -0.9400    -3.8690 c3         1 RRS      -0.058700
     23 C15          1.8330    -1.1730    -5.2340 c3         1 RRS      -0.088100
     24 C16          2.2600    -0.8560    -2.7840 c3         1 RRS      -0.088100
     25 C17         -0.2590     2.3520     1.7140 c3         1 RRS      -0.000200
     26 C18         -0.6840     1.0990     2.4060 cc         1 RRS      -0.173400
     27 C19         -0.1090     0.5740     3.5270 cd         1 RRS      -0.081100
     28 C20         -1.6260     0.1180     1.9520 ca         1 RRS      -0.101800
     29 C21         -1.5340    -0.9810     2.8380 ca         1 RRS      -0.048200
     30 C22         -2.5220     0.0550     0.8770 ca         1 RRS      -0.105000
     31 C23         -2.3060    -2.1290     2.6640 ca         1 RRS      -0.141000
     32 C24         -3.2800    -1.0850     0.6980 ca         1 RRS      -0.142000
     33 C25         -3.1700    -2.1670     1.5850 ca         1 RRS      -0.115000
     34 HN1         -3.2570     2.1410    -4.7560 hn         1 RRS       0.334500
     35 HO1         -4.3250     0.1340    -5.7700 ho         1 RRS       0.409000
     36 H21         -2.0730     1.8900    -1.9400 hc         1 RRS       0.070700
     37 H22A        -1.4560     2.3170    -3.5240 hc         1 RRS       0.070700
     38 H3          -0.7040    -0.2600    -2.0840 hc         1 RRS       0.082700
     39 HN2         -0.2510     0.4610    -0.1200 hn         1 RRS       0.331500
     40 H5           1.0850     3.0540     0.1980 h1         1 RRS       0.099700
     41 HN3          2.2020     0.0490     0.0660 hn         1 RRS       0.317500
     42 H71          4.4910     0.7550     1.7950 h1         1 RRS       0.054200
     43 H72          4.6100     0.0410     0.2000 h1         1 RRS       0.054200
     44 H81          5.1620    -1.6270     1.7340 hc         1 RRS       0.042700
     45 H82          3.6110    -2.0890     1.0870 hc         1 RRS       0.042700
     46 H91          3.7880    -0.5420     3.7010 hc         1 RRS       0.041700
     47 H92          4.1060    -2.2590     3.6990 hc         1 RRS       0.041700
     48 H101         1.8640    -2.7740     2.9070 hc         1 RRS       0.047700
     49 H102         1.5430    -1.0940     2.5600 hc         1 RRS       0.047700
     50 H111         1.8790    -0.6210     5.0730 hc         1 RRS       0.050200
     51 H112         1.9020    -2.3450     5.3290 hc         1 RRS       0.050200
     52 H121        -0.3400    -1.3770     5.7540 h1         1 RRS       0.057200
     53 H122        -0.3710    -2.5990     4.4950 h1         1 RRS       0.057200
     54 H131         0.8510     1.1590    -4.2770 hc         1 RRS       0.053700
     55 H132        -0.4740     0.1080    -4.6900 hc         1 RRS       0.053700
     56 H14          0.5570    -1.8040    -3.6440 hc         1 RRS       0.047700
     57 H151         2.4180    -2.0940    -5.2430 hc         1 RRS       0.033700
     58 H152         1.0800    -1.2510    -6.0200 hc         1 RRS       0.033700
     59 H153         2.5040    -0.3520    -5.4970 hc         1 RRS       0.033700
     60 H161         2.8740     0.0410    -2.8880 hc         1 RRS       0.033700
     61 H162         1.8170    -0.8520    -1.7870 hc         1 RRS       0.033700
     62 H163         2.9240    -1.7210    -2.8250 hc         1 RRS       0.033700
     63 H171         0.1260     3.0730     2.4330 hc         1 RRS       0.064200
     64 H172        -1.1020     2.8320     1.2110 hc         1 RRS       0.064200
     65 H19          0.6620     1.0060     4.1450 h4         1 RRS       0.175000
     66 H22         -2.6280     0.8920     0.1960 ha         1 RRS       0.126000
     67 H23         -2.2420    -2.9680     3.3440 ha         1 RRS       0.130000
     68 H24         -3.9620    -1.1460    -0.1390 ha         1 RRS       0.143000
     69 H25         -3.7770    -3.0490     1.4250 ha         1 RRS       0.130000
@<TRIPOS>BOND
     1     1     2 2   
     2     1     3 1   
     3     1     5 1   
     4     3     4 1   
     5     3    34 1   
     6     4    35 1   
     7     5     6 1   
     8     5    36 1   
     9     5    37 1   
    10     6     7 1   
    11     6    21 1   
    12     6    38 1   
    13     7     8 2   
    14     7     9 1   
    15     9    10 1   
    16     9    39 1   
    17    10    11 1   
    18    10    25 1   
    19    10    40 1   
    20    11    12 2   
    21    11    13 1   
    22    13    14 1   
    23    13    41 1   
    24    14    15 1   
    25    14    42 1   
    26    14    43 1   
    27    15    16 1   
    28    15    44 1   
    29    15    45 1   
    30    16    17 1   
    31    16    46 1   
    32    16    47 1   
    33    17    18 1   
    34    17    48 1   
    35    17    49 1   
    36    18    19 1   
    37    18    50 1   
    38    18    51 1   
    39    19    20 1   
    40    19    52 1   
    41    19    53 1   
    42    20    27 1   
    43    20    29 1   
    44    21    22 1   
    45    21    54 1   
    46    21    55 1   
    47    22    23 1   
    48    22    24 1   
    49    22    56 1   
    50    23    57 1   
    51    23    58 1   
    52    23    59 1   
    53    24    60 1   
    54    24    61 1   
    55    24    62 1   
    56    25    26 1   
    57    25    63 1   
    58    25    64 1   
    59    26    27 2   
    60    26    28 1   
    61    27    65 1   
    62    28    29 ar  
    63    28    30 ar  
    64    29    31 ar  
    65    30    32 ar  
    66    30    66 1   
    67    31    33 ar  
    68    31    67 1   
    69    32    33 ar  
    70    32    68 1   
    71    33    69 1   
@<TRIPOS>SUBSTRUCTURE
     1 RRS         1 TEMP              0 ****  ****    0 ROOT
