@<TRIPOS>MOLECULE
RRS
   69    71     1     0     0
SMALL
No Charge or Current Charge


@<TRIPOS>ATOM
      1 C1          -2.8310     0.8980    -3.7150 c          1 RRS       0.600100
      2 O2          -3.6650     0.3360    -3.0180 o          1 RRS      -0.570100
      3 N1          -2.8630     0.8510    -5.1050 ns         1 RRS      -0.383400
      4 O1          -4.0230     0.3430    -5.8090 oh         1 RRS      -0.427100
      5 C2          -1.6910     1.7340    -3.1150 c3         1 RRS      -0.161400
      6 C3          -0.6250     0.8730    -2.3680 c3         1 RRS      -0.128700
      7 C4           0.2540     1.7950    -1.4900 c          1 RRS       0.595100
      8 O3           0.9700     2.6720    -1.9500 o          1 RRS      -0.595100
      9 N2           0.1560     1.5800    -0.1370 ns         1 RRS      -0.519900
     10 C5           0.6630     2.4930     0.9190 c3         1 RRS       0.026700
     11 C6           2.1250     2.1640     1.3610 c          1 RRS       0.598100
     12 O4           2.7030     2.8110     2.2250 o          1 RRS      -0.619100
     13 N3           2.7460     1.1150     0.7090 ns         1 RRS      -0.493900
     14 C7           4.1470     0.7100     0.8910 c3         1 RRS       0.099000
     15 C8           4.3570    -0.8130     1.0840 c3         1 RRS      -0.089400
     16 C9           3.8630    -1.3860     2.4370 c3         1 RRS      -0.070400
     17 C10          2.3520    -1.7010     2.4890 c3         1 RRS      -0.078400
     18 C11          1.8440    -2.0060     3.9220 c3         1 RRS      -0.097400
     19 C12          0.3050    -2.1410     4.0330 c3         1 RRS       0.078600
     20 N4          -0.4330    -0.9580     3.5380 na         1 RRS      -0.086700
     21 C13          0.2220    -0.0100    -3.3380 c3         1 RRS      -0.066400
     22 C14          0.6850    -1.3850    -2.7750 c3         1 RRS      -0.058700
     23 C15          1.4140    -2.2040    -3.8650 c3         1 RRS      -0.088100
     24 C16          1.5560    -1.2790    -1.5040 c3         1 RRS      -0.088100
     25 C17         -0.3310     2.5040     2.1120 c3         1 RRS      -0.000200
     26 C18         -0.6690     1.1140     2.5910 cc         1 RRS      -0.173400
     27 C19         -0.0060     0.3910     3.5750 cd         1 RRS      -0.131100
     28 C20         -1.6090     0.2040     1.9960 ca         1 RRS      -0.101800
     29 C21         -1.4340    -1.0220     2.5780 ca         1 RRS      -0.048200
     30 C22         -2.5660     0.4220     0.9940 ca         1 RRS      -0.087000
     31 C23         -2.2150    -2.1250     2.1910 ca         1 RRS      -0.123000
     32 C24         -3.3530    -0.6710     0.5790 ca         1 RRS      -0.124000
     33 C25         -3.1790    -1.9400     1.1760 ca         1 RRS      -0.097000
     34 HN1         -2.2440     1.4610    -5.6380 hn         1 RRS       0.334500
     35 HO1         -3.6410    -0.2990    -6.4530 ho         1 RRS       0.448000
     36 H21         -2.1410     2.4230    -2.3900 hc         1 RRS       0.070700
     37 H22A        -1.1930     2.3180    -3.8990 hc         1 RRS       0.070700
     38 H3          -1.1730     0.1990    -1.6970 hc         1 RRS       0.082700
     39 HN2         -0.4600     0.8300     0.1610 hn         1 RRS       0.331500
     40 H5           0.7070     3.5090     0.5070 h1         1 RRS       0.099700
     41 HN3          2.1910     0.6430     0.0080 hn         1 RRS       0.317500
     42 H71          4.5830     1.2410     1.7470 h1         1 RRS       0.054200
     43 H72          4.7000     1.0280    -0.0030 h1         1 RRS       0.054200
     44 H81          5.4360    -0.9990     1.0210 hc         1 RRS       0.042700
     45 H82          3.9060    -1.3670     0.2530 hc         1 RRS       0.042700
     46 H91          4.1230    -0.6800     3.2360 hc         1 RRS       0.041700
     47 H92          4.4130    -2.3110     2.6510 hc         1 RRS       0.041700
     48 H101         2.1350    -2.5560     1.8350 hc         1 RRS       0.047700
     49 H102         1.7980    -0.8550     2.0760 hc         1 RRS       0.047700
     50 H111         2.1780    -1.2130     4.6030 hc         1 RRS       0.050200
     51 H112         2.3080    -2.9340     4.2790 hc         1 RRS       0.050200
     52 H121         0.0290    -2.3070     5.0820 h1         1 RRS       0.057200
     53 H122        -0.0040    -3.0250     3.4640 h1         1 RRS       0.057200
     54 H131         1.0950     0.5580    -3.6860 hc         1 RRS       0.053700
     55 H132        -0.3690    -0.2170    -4.2380 hc         1 RRS       0.053700
     56 H14         -0.2160    -1.9510    -2.5030 hc         1 RRS       0.047700
     57 H151         1.6790    -3.2000    -3.4920 hc         1 RRS       0.033700
     58 H152         0.7750    -2.3350    -4.7470 hc         1 RRS       0.033700
     59 H153         2.3360    -1.6990    -4.1810 hc         1 RRS       0.033700
     60 H161         2.4040    -0.6040    -1.6690 hc         1 RRS       0.033700
     61 H162         0.9680    -0.9180    -0.6540 hc         1 RRS       0.033700
     62 H163         1.9520    -2.2630    -1.2230 hc         1 RRS       0.033700
     63 H171         0.0810     3.1020     2.9340 hc         1 RRS       0.064200
     64 H172        -1.2500     3.0130     1.8000 hc         1 RRS       0.064200
     65 H19          0.8200     0.7080     4.2040 h4         1 RRS       0.225000
     66 H22         -2.7010     1.4040     0.5460 ha         1 RRS       0.108000
     67 H23         -2.0910    -3.0990     2.6560 ha         1 RRS       0.112000
     68 H24         -4.1000    -0.5360    -0.2000 ha         1 RRS       0.125000
     69 H25         -3.7940    -2.7780     0.8550 ha         1 RRS       0.112000
@<TRIPOS>BOND
     1     1     2 2   
     2     1     3 1   
     3     1     5 1   
     4     3     4 1   
     5     3    34 1   
     6     4    35 1   
     7     5     6 1   
     8     5    36 1   
     9     5    37 1   
    10     6     7 1   
    11     6    21 1   
    12     6    38 1   
    13     7     8 2   
    14     7     9 1   
    15     9    10 1   
    16     9    39 1   
    17    10    11 1   
    18    10    25 1   
    19    10    40 1   
    20    11    12 2   
    21    11    13 1   
    22    13    14 1   
    23    13    41 1   
    24    14    15 1   
    25    14    42 1   
    26    14    43 1   
    27    15    16 1   
    28    15    44 1   
    29    15    45 1   
    30    16    17 1   
    31    16    46 1   
    32    16    47 1   
    33    17    18 1   
    34    17    48 1   
    35    17    49 1   
    36    18    19 1   
    37    18    50 1   
    38    18    51 1   
    39    19    20 1   
    40    19    52 1   
    41    19    53 1   
    42    20    27 1   
    43    20    29 1   
    44    21    22 1   
    45    21    54 1   
    46    21    55 1   
    47    22    23 1   
    48    22    24 1   
    49    22    56 1   
    50    23    57 1   
    51    23    58 1   
    52    23    59 1   
    53    24    60 1   
    54    24    61 1   
    55    24    62 1   
    56    25    26 1   
    57    25    63 1   
    58    25    64 1   
    59    26    27 2   
    60    26    28 1   
    61    27    65 1   
    62    28    29 ar  
    63    28    30 ar  
    64    29    31 ar  
    65    30    32 ar  
    66    30    66 1   
    67    31    33 ar  
    68    31    67 1   
    69    32    33 ar  
    70    32    68 1   
    71    33    69 1   
@<TRIPOS>SUBSTRUCTURE
     1 RRS         1 TEMP              0 ****  ****    0 ROOT
