@<TRIPOS>MOLECULE
RRT
   31    31     1     0     0
SMALL
No Charge or Current Charge


@<TRIPOS>ATOM
      1 SG           2.1320     2.9930     0.3450 sh         1 RRT      -0.323800
      2 CB2          0.4160     2.9140    -0.3500 c3         1 RRT       0.043600
      3 CA1         -0.3370     1.5980    -0.0470 c3         1 RRT       0.124700
      4 CB1         -1.7760     1.6060    -0.6150 c3         1 RRT      -0.053100
      5 CG          -2.5470     0.3270    -0.3020 ca         1 RRT      -0.063300
      6 CD1         -3.1020     0.1310     0.9780 ca         1 RRT      -0.096500
      7 CD2         -2.7010    -0.6730    -1.2830 ca         1 RRT      -0.096500
      8 CE1         -3.8030    -1.0510     1.2730 ca         1 RRT      -0.108000
      9 CE2         -3.4010    -1.8550    -0.9870 ca         1 RRT      -0.108000
     10 CZ          -3.9530    -2.0440     0.2910 ca         1 RRT      -0.115000
     11 O1           0.5410    -0.7220     1.4290 o          1 RRT      -0.633100
     12 N            0.4090     0.4300    -0.5350 ns         1 RRT      -0.508900
     13 CA2          1.4410    -1.7760    -0.5320 c3         1 RRT      -0.307400
     14 C2           2.9230    -1.5500    -0.3400 c          1 RRT       0.731000
     15 O2           3.4680    -2.0740     0.6180 o          1 RRT      -0.719000
     16 O3           3.4960    -0.8290    -1.1400 o          1 RRT      -0.719000
     17 HSG          2.4270     4.2280    -0.1240 hs         1 RRT       0.140800
     18 HB21         0.4850     3.0510    -1.4370 h1         1 RRT       0.042700
     19 HB22        -0.1530     3.7580     0.0600 h1         1 RRT       0.042700
     20 HA1         -0.4200     1.5270     1.0460 h1         1 RRT       0.096700
     21 HB11        -2.3150     2.4690    -0.2060 hc         1 RRT       0.036200
     22 HB12        -1.7320     1.7640    -1.7000 hc         1 RRT       0.036200
     23 HD1         -2.9870     0.8940     1.7450 ha         1 RRT       0.107000
     24 HD2         -2.2730    -0.5370    -2.2740 ha         1 RRT       0.107000
     25 HE1         -4.2290    -1.1970     2.2640 ha         1 RRT       0.104000
     26 HE2         -3.5150    -2.6240    -1.7470 ha         1 RRT       0.104000
     27 HZ          -4.4950    -2.9590     0.5210 ha         1 RRT       0.101000
     28 H            0.6580     0.3920    -1.5140 hn         1 RRT       0.305500
     29 HA21         1.1870    -1.6530    -1.5910 hc         1 RRT       0.040200
     30 HA22         1.1300    -2.7130    -0.0560 hc         1 RRT       0.040200
     31 C1           0.7690    -0.6560     0.2290 c          1 RRT       0.647100
@<TRIPOS>BOND
     1     1     2 1   
     2     1    17 1   
     3     2     3 1   
     4     2    18 1   
     5     2    19 1   
     6     3     4 1   
     7     3    12 1   
     8     3    20 1   
     9     4     5 1   
    10     4    21 1   
    11     4    22 1   
    12     5     6 ar  
    13     5     7 ar  
    14     6     8 ar  
    15     6    23 1   
    16     7     9 ar  
    17     7    24 1   
    18     8    10 ar  
    19     8    25 1   
    20     9    10 ar  
    21     9    26 1   
    22    10    27 1   
    23    11    31 2   
    24    12    28 1   
    25    12    31 1   
    26    13    14 1   
    27    13    29 1   
    28    13    30 1   
    29    13    31 1   
    30    14    15 1   
    31    14    16 1   
@<TRIPOS>SUBSTRUCTURE
     1 RRT         1 TEMP              0 ****  ****    0 ROOT
