@<TRIPOS>MOLECULE
RRT
   31    31     1     0     0
SMALL
abcg2


@<TRIPOS>ATOM
      1 SG           2.0790     2.8640     0.1370 sh         1 RRT      -0.323800
      2 CB2          0.3680     2.8960    -0.4960 c3         1 RRT       0.043600
      3 CA1         -0.3440     1.6070    -0.1110 c3         1 RRT       0.124700
      4 CB1         -1.7630     1.5950    -0.7050 c3         1 RRT      -0.053100
      5 CG          -2.5230     0.3580    -0.3240 ca         1 RRT      -0.063300
      6 CD1         -3.2420     0.3090     0.8680 ca         1 RRT      -0.096500
      7 CD2         -2.4850    -0.7810    -1.1250 ca         1 RRT      -0.096500
      8 CE1         -3.9080    -0.8460     1.2520 ca         1 RRT      -0.108000
      9 CE2         -3.1460    -1.9410    -0.7430 ca         1 RRT      -0.108000
     10 CZ          -3.8610    -1.9770     0.4470 ca         1 RRT      -0.115000
     11 O1           0.4140    -0.6560     1.4290 o          1 RRT      -0.633100
     12 N            0.4110     0.4580    -0.5390 ns         1 RRT      -0.508900
     13 CA2          1.3940    -1.7350    -0.4680 c3         1 RRT      -0.307400
     14 C2           2.9400    -1.6360    -0.3780 c          1 RRT       0.731000
     15 O2           3.5610    -2.5670    -0.9240 o          1 RRT      -0.719000
     16 O3           3.4120    -0.6530     0.2150 o          1 RRT      -0.719000
     17 HSG          2.2640     4.1890     0.1340 hs         1 RRT       0.140800
     18 HB21         0.3770     3.0200    -1.5810 h1         1 RRT       0.042700
     19 HB22        -0.1590     3.7460    -0.0650 h1         1 RRT       0.042700
     20 HA1         -0.4160     1.5570     0.9760 h1         1 RRT       0.096700
     21 HB11        -2.2910     2.4850    -0.3540 hc         1 RRT       0.036200
     22 HB12        -1.6910     1.6780    -1.7940 hc         1 RRT       0.036200
     23 HD1         -3.2790     1.1880     1.5020 ha         1 RRT       0.107000
     24 HD2         -1.9340    -0.7610    -2.0580 ha         1 RRT       0.107000
     25 HE1         -4.4670    -0.8620     2.1790 ha         1 RRT       0.104000
     26 HE2         -3.1040    -2.8170    -1.3780 ha         1 RRT       0.104000
     27 HZ          -4.3810    -2.8790     0.7440 ha         1 RRT       0.101000
     28 H            0.6390     0.3970    -1.5190 hn         1 RRT       0.305500
     29 HA21         1.1070    -1.7830    -1.5230 hc         1 RRT       0.040200
     30 HA22         1.0730    -2.6790    -0.0200 hc         1 RRT       0.040200
     31 C1           0.6950    -0.6090     0.2400 c          1 RRT       0.647100
@<TRIPOS>BOND
     1     1     2 1   
     2     1    17 1   
     3     2     3 1   
     4     2    18 1   
     5     2    19 1   
     6     3     4 1   
     7     3    12 1   
     8     3    20 1   
     9     4     5 1   
    10     4    21 1   
    11     4    22 1   
    12     5     6 ar  
    13     5     7 ar  
    14     6     8 ar  
    15     6    23 1   
    16     7     9 ar  
    17     7    24 1   
    18     8    10 ar  
    19     8    25 1   
    20     9    10 ar  
    21     9    26 1   
    22    10    27 1   
    23    11    31 2   
    24    12    28 1   
    25    12    31 1   
    26    13    14 1   
    27    13    29 1   
    28    13    30 1   
    29    13    31 1   
    30    14    15 1   
    31    14    16 1   
@<TRIPOS>SUBSTRUCTURE
     1 RRT         1 TEMP              0 ****  ****    0 ROOT
