@<TRIPOS>MOLECULE
RRV
   46    46     1     0     0
SMALL
abcg2


@<TRIPOS>ATOM
      1 C1          -4.1140   138.3330    43.6710 c3         1 RRV      -0.088600
      2 C2          -4.3680   136.9410    44.2610 c3         1 RRV      -0.063000
      3 C3          -4.3880   137.0240    45.7920 c3         1 RRV      -0.088600
      4 C4          -5.7350   136.4670    43.7580 c3         1 RRV       0.168600
      5 O5          -6.0370   135.1750    44.2940 oh         1 RRV      -0.675000
      6 C6          -3.2980   135.9190    43.7690 c3         1 RRV       0.100300
      7 C7          -1.8670   136.2940    44.1660 c          1 RRV       0.562100
      8 O8          -1.1550   136.9040    43.3610 o          1 RRV      -0.629100
      9 N9          -1.4580   135.9260    45.3840 ns         1 RRV      -0.489900
     10 C10         -0.1320   136.2160    45.9100 c3         1 RRV       0.105000
     11 C11          0.8770   135.1180    45.5740 c3         1 RRV      -0.095400
     12 C12          2.2730   135.4340    46.0840 c3         1 RRV       0.178300
     13 O13          2.2010   135.4930    47.5150 oh         1 RRV      -0.667000
     14 C15          3.3420   134.4330    45.6080 c3         1 RRV      -0.061100
     15 C16          3.0900   133.0030    46.0030 ca         1 RRV      -0.076300
     16 C17          3.5000   132.5210    47.2490 ca         1 RRV      -0.102000
     17 C18          3.2400   131.2090    47.6300 ca         1 RRV      -0.109500
     18 C19          2.5660   130.3510    46.7660 ca         1 RRV      -0.110000
     19 C20          2.1610   130.8150    45.5180 ca         1 RRV      -0.109500
     20 C21          2.4230   132.1280    45.1430 ca         1 RRV      -0.102000
     21 O22         -3.3230   135.7800    42.3550 oh         1 RRV      -0.657000
     22 H1          -4.0820   138.3030    42.5810 hc         1 RRV       0.041367
     23 H1A         -4.9110   139.0160    43.9690 hc         1 RRV       0.041367
     24 H1B         -3.1690   138.7430    44.0300 hc         1 RRV       0.041367
     25 H3          -4.4730   136.0370    46.2490 hc         1 RRV       0.041367
     26 H3A         -3.4870   137.5040    46.1760 hc         1 RRV       0.041367
     27 H3B         -5.2460   137.6190    46.1140 hc         1 RRV       0.041367
     28 H4          -6.4900   137.1940    44.0790 h1         1 RRV       0.031700
     29 H4A         -5.7320   136.4320    42.6670 h1         1 RRV       0.031700
     30 HO5         -6.8530   134.8650    43.8860 ho         1 RRV       0.444000
     31 H6          -3.5450   134.9480    44.2000 h1         1 RRV       0.084700
     32 HN9         -2.0820   135.3730    45.9500 hn         1 RRV       0.321500
     33 H10          0.1960   137.1680    45.4920 h1         1 RRV       0.063200
     34 H10A        -0.2210   136.3340    46.9890 h1         1 RRV       0.063200
     35 H11          0.5390   134.1700    45.9980 hc         1 RRV       0.061200
     36 H11A         0.9210   134.9930    44.4900 hc         1 RRV       0.061200
     37 H12          2.5690   136.4200    45.7030 h1         1 RRV       0.032700
     38 HO13         3.0740   135.7270    47.8540 ho         1 RRV       0.439000
     39 H15          3.4050   134.5140    44.5200 hc         1 RRV       0.051700
     40 H15A         4.3030   134.7640    46.0100 hc         1 RRV       0.051700
     41 H17          4.0300   133.1820    47.9250 ha         1 RRV       0.108500
     42 H18          3.5670   130.8560    48.6010 ha         1 RRV       0.112500
     43 H19          2.3640   129.3280    47.0610 ha         1 RRV       0.112000
     44 H20          1.6440   130.1520    44.8350 ha         1 RRV       0.112500
     45 H21          2.1070   132.4810    44.1690 ha         1 RRV       0.108500
     46 HO22        -2.5840   136.3220    42.0290 ho         1 RRV       0.469000
@<TRIPOS>BOND
     1     1     2 1   
     2     1    22 1   
     3     1    23 1   
     4     1    24 1   
     5     2     3 1   
     6     2     4 1   
     7     2     6 1   
     8     3    25 1   
     9     3    26 1   
    10     3    27 1   
    11     4     5 1   
    12     4    28 1   
    13     4    29 1   
    14     5    30 1   
    15     6     7 1   
    16     6    21 1   
    17     6    31 1   
    18     7     8 2   
    19     7     9 1   
    20     9    10 1   
    21     9    32 1   
    22    10    11 1   
    23    10    33 1   
    24    10    34 1   
    25    11    12 1   
    26    11    35 1   
    27    11    36 1   
    28    12    13 1   
    29    12    14 1   
    30    12    37 1   
    31    13    38 1   
    32    14    15 1   
    33    14    39 1   
    34    14    40 1   
    35    15    16 ar  
    36    15    20 ar  
    37    16    17 ar  
    38    16    41 1   
    39    17    18 ar  
    40    17    42 1   
    41    18    19 ar  
    42    18    43 1   
    43    19    20 ar  
    44    19    44 1   
    45    20    45 1   
    46    21    46 1   
@<TRIPOS>SUBSTRUCTURE
     1 RRV         1 TEMP              0 ****  ****    0 ROOT
