@<TRIPOS>MOLECULE
RRV
   46    46     1     0     0
SMALL
No Charge or Current Charge


@<TRIPOS>ATOM
      1 C1          -4.1500   138.0800    43.0450 c3         1 RRV      -0.088600
      2 C2          -4.4010   136.9560    44.0940 c3         1 RRV      -0.063000
      3 C3          -4.3550   137.6100    45.5090 c3         1 RRV      -0.088600
      4 C4          -5.8300   136.3720    43.8470 c3         1 RRV       0.168600
      5 O5          -6.1750   135.3770    44.8260 oh         1 RRV      -0.675000
      6 C6          -3.3210   135.8130    43.9810 c3         1 RRV       0.100300
      7 C7          -1.8830   136.2570    44.4140 c          1 RRV       0.562100
      8 O8          -1.1080   136.8180    43.6480 o          1 RRV      -0.629100
      9 N9          -1.5090   135.9080    45.6980 ns         1 RRV      -0.489900
     10 C10         -0.1950   136.1810    46.2880 c3         1 RRV       0.105000
     11 C11          0.8730   135.1690    45.8230 c3         1 RRV      -0.095400
     12 C12          2.2810   135.4520    46.3980 c3         1 RRV       0.178300
     13 O13          2.2490   135.3230    47.8250 oh         1 RRV      -0.667000
     14 C15          3.3840   134.5330    45.8070 c3         1 RRV      -0.061100
     15 C16          3.1300   133.0350    45.9780 ca         1 RRV      -0.076300
     16 C17          3.5300   132.3720    47.1550 ca         1 RRV      -0.102000
     17 C18          3.3010   130.9930    47.3070 ca         1 RRV      -0.109500
     18 C19          2.6730   130.2660    46.2820 ca         1 RRV      -0.110000
     19 C20          2.2770   130.9200    45.1030 ca         1 RRV      -0.109500
     20 C21          2.5060   132.2980    44.9510 ca         1 RRV      -0.102000
     21 O22         -3.3030   135.2590    42.6390 oh         1 RRV      -0.657000
     22 H1          -4.2140   137.6960    42.0200 hc         1 RRV       0.041367
     23 H1A         -4.8990   138.8760    43.1420 hc         1 RRV       0.041367
     24 H1B         -3.1640   138.5400    43.1760 hc         1 RRV       0.041367
     25 H3          -4.4450   136.8570    46.3010 hc         1 RRV       0.041367
     26 H3A         -3.4170   138.1560    45.6690 hc         1 RRV       0.041367
     27 H3B         -5.1760   138.3270    45.6340 hc         1 RRV       0.041367
     28 H4          -6.5610   137.1910    43.8810 h1         1 RRV       0.031700
     29 H4A         -5.8790   135.9400    42.8380 h1         1 RRV       0.031700
     30 HO5         -7.0740   135.0520    44.5970 ho         1 RRV       0.444000
     31 H6          -3.6070   135.0200    44.6850 h1         1 RRV       0.084700
     32 HN9         -2.1990   135.4270    46.2640 hn         1 RRV       0.321500
     33 H10          0.1160   137.1990    46.0150 h1         1 RRV       0.063200
     34 H10A        -0.2900   136.1410    47.3810 h1         1 RRV       0.063200
     35 H11          0.5540   134.1590    46.1070 hc         1 RRV       0.061200
     36 H11A         0.9300   135.1900    44.7280 hc         1 RRV       0.061200
     37 H12          2.5460   136.4860    46.1360 h1         1 RRV       0.032700
     38 HO13         3.1440   135.5570    48.1530 ho         1 RRV       0.439000
     39 H15          3.4880   134.7680    44.7400 hc         1 RRV       0.051700
     40 H15A         4.3480   134.8010    46.2560 hc         1 RRV       0.051700
     41 H17          4.0170   132.9250    47.9550 ha         1 RRV       0.108500
     42 H18          3.6110   130.4880    48.2200 ha         1 RRV       0.112500
     43 H19          2.4960   129.2000    46.3990 ha         1 RRV       0.112000
     44 H20          1.7920   130.3590    44.3070 ha         1 RRV       0.112500
     45 H21          2.1960   132.7940    44.0340 ha         1 RRV       0.108500
     46 HO22        -2.6440   135.7860    42.1310 ho         1 RRV       0.469000
@<TRIPOS>BOND
     1     1     2 1   
     2     1    22 1   
     3     1    23 1   
     4     1    24 1   
     5     2     3 1   
     6     2     4 1   
     7     2     6 1   
     8     3    25 1   
     9     3    26 1   
    10     3    27 1   
    11     4     5 1   
    12     4    28 1   
    13     4    29 1   
    14     5    30 1   
    15     6     7 1   
    16     6    21 1   
    17     6    31 1   
    18     7     8 2   
    19     7     9 1   
    20     9    10 1   
    21     9    32 1   
    22    10    11 1   
    23    10    33 1   
    24    10    34 1   
    25    11    12 1   
    26    11    35 1   
    27    11    36 1   
    28    12    13 1   
    29    12    14 1   
    30    12    37 1   
    31    13    38 1   
    32    14    15 1   
    33    14    39 1   
    34    14    40 1   
    35    15    16 ar  
    36    15    20 ar  
    37    16    17 ar  
    38    16    41 1   
    39    17    18 ar  
    40    17    42 1   
    41    18    19 ar  
    42    18    43 1   
    43    19    20 ar  
    44    19    44 1   
    45    20    45 1   
    46    21    46 1   
@<TRIPOS>SUBSTRUCTURE
     1 RRV         1 TEMP              0 ****  ****    0 ROOT
