@<TRIPOS>MOLECULE
RRW
   62    64     1     0     0
SMALL
abcg2


@<TRIPOS>ATOM
      1 N            0.1080    -0.8550   -28.7760 n8         1 RRW      -1.043200
      2 CA          -1.2430    -0.4050   -28.5830 c3         1 RRW       0.114500
      3 C           -2.2480    -1.4140   -28.0250 c          1 RRW       0.586100
      4 O           -3.3330    -1.0950   -27.5990 o          1 RRW      -0.544100
      5 CB          -1.8220     0.1510   -29.8900 c3         1 RRW      -0.066400
      6 CG          -1.0130     1.2950   -30.5050 c3         1 RRW      -0.053700
      7 CD1         -0.8810     2.4790   -29.5530 c3         1 RRW      -0.090100
      8 CD2         -1.6590     1.7260   -31.8180 c3         1 RRW      -0.090100
      9 C1         -11.1570    -3.8540   -26.5310 ca         1 RRW      -0.153000
     10 C7          -7.3250    -3.7890   -29.0920 c5         1 RRW       0.320300
     11 C2         -11.0300    -4.6980   -25.4140 ca         1 RRW      -0.073300
     12 C9          -6.6330    -2.4350   -28.8970 c5         1 RRW       0.084300
     13 C2M        -12.1880    -4.8330   -24.4650 c3         1 RRW       0.211900
     14 C3          -9.8440    -5.3570   -25.1680 ca         1 RRW      -0.077000
     15 C10         -5.7310    -2.3720   -30.1320 c5         1 RRW       0.126300
     16 C4          -8.7910    -5.1610   -26.0670 ca         1 RRW       0.097400
     17 C11         -5.3420    -3.8380   -30.3200 c5         1 RRW       0.171300
     18 C5          -8.9380    -4.3400   -27.1930 ca         1 RRW      -0.101200
     19 C12         -4.0120    -4.2400   -29.7290 c3         1 RRW       0.188600
     20 C6         -10.1330    -3.6410   -27.4460 ca         1 RRW       0.272000
     21 C8          -6.9430    -5.2530   -27.1080 cc         1 RRW       0.440700
     22 N3S         -1.8420    -2.7300   -28.0720 ns         1 RRW      -0.630300
     23 N6         -10.3090    -2.8320   -28.5600 nv         1 RRW      -1.060000
     24 N7          -7.7240    -4.4290   -27.8550 na         1 RRW      -0.193600
     25 N9          -7.5350    -5.7130   -26.0460 nd         1 RRW      -0.583100
     26 O1S         -3.1570    -3.7090   -26.1180 o          1 RRW      -0.528000
     27 O2          -7.5840    -1.4070   -28.8470 oh         1 RRW      -0.726000
     28 O2M        -13.3500    -5.1810   -25.1880 oh         1 RRW      -0.654000
     29 O2S         -1.9630    -5.1760   -27.7630 o          1 RRW      -0.528000
     30 O3          -6.4650    -1.9810   -31.2620 oh         1 RRW      -0.714000
     31 O4          -6.3940    -4.6070   -29.7390 os         1 RRW      -0.438000
     32 O5          -4.0520    -3.9460   -28.3200 os         1 RRW      -0.573700
     33 S           -2.7250    -3.9930   -27.4560 s6         1 RRW       1.438500
     34 H1           0.5360    -1.2400   -27.9470 hn         1 RRW       0.423500
     35 H2           0.2230    -1.4920   -29.5520 hn         1 RRW       0.423500
     36 H4          -1.2340     0.3960   -27.8370 h1         1 RRW       0.098700
     37 H5          -2.8430     0.4960   -29.7040 hc         1 RRW       0.045700
     38 H6          -1.8970    -0.6640   -30.6200 hc         1 RRW       0.045700
     39 H7          -0.0090     0.9230   -30.7270 hc         1 RRW       0.060700
     40 H8          -0.3260     2.2180   -28.6510 hc         1 RRW       0.035200
     41 H9          -0.3500     3.3040   -30.0310 hc         1 RRW       0.035200
     42 H10         -1.8630     2.8480   -29.2450 hc         1 RRW       0.035200
     43 H11         -1.0790     2.5170   -32.2970 hc         1 RRW       0.035200
     44 H12         -1.7290     0.8950   -32.5220 hc         1 RRW       0.035200
     45 H13         -2.6700     2.1090   -31.6550 hc         1 RRW       0.035200
     46 H15         -8.2270    -3.6730   -29.7020 h2         1 RRW       0.109700
     47 H16         -6.0240    -2.4600   -27.9890 h1         1 RRW       0.093700
     48 H17        -11.9450    -5.5830   -23.7030 h1         1 RRW       0.023200
     49 H18        -12.3290    -3.8820   -23.9360 h1         1 RRW       0.023200
     50 H19         -9.7220    -6.0110   -24.3140 ha         1 RRW       0.129000
     51 H20         -4.8580    -1.7250   -29.9750 h1         1 RRW       0.058700
     52 H21         -5.2760    -4.0670   -31.3880 h1         1 RRW       0.096700
     53 H22         -3.8320    -5.3060   -29.8750 h1         1 RRW       0.064700
     54 H23         -3.2150    -3.6760   -30.2200 h1         1 RRW       0.064700
     55 H24         -5.9360    -5.5030   -27.3990 h5         1 RRW       0.066800
     56 H25         -0.9170    -2.9620   -28.4170 hn         1 RRW       0.343500
     57 H26        -11.1800    -2.3240   -28.5390 hn         1 RRW       0.440000
     58 H27         -9.5460    -2.1890   -28.7340 hn         1 RRW       0.440000
     59 H28         -7.2930    -0.7250   -28.2330 ho         1 RRW       0.528000
     60 H29        -14.1060    -5.0670   -24.6050 ho         1 RRW       0.438000
     61 H30         -6.9610    -1.1860   -31.0340 ho         1 RRW       0.527000
     62 H14        -12.0930    -3.3300   -26.6870 ha         1 RRW       0.115000
@<TRIPOS>BOND
     1     1     2 1   
     2     1    34 1   
     3     1    35 1   
     4     2     3 1   
     5     2     5 1   
     6     2    36 1   
     7     3     4 2   
     8     3    22 1   
     9     5     6 1   
    10     5    37 1   
    11     5    38 1   
    12     6     7 1   
    13     6     8 1   
    14     6    39 1   
    15     7    40 1   
    16     7    41 1   
    17     7    42 1   
    18     8    43 1   
    19     8    44 1   
    20     8    45 1   
    21     9    11 ar  
    22     9    20 ar  
    23     9    62 1   
    24    10    12 1   
    25    10    24 1   
    26    10    31 1   
    27    10    46 1   
    28    11    13 1   
    29    11    14 ar  
    30    12    15 1   
    31    12    27 1   
    32    12    47 1   
    33    13    28 1   
    34    13    48 1   
    35    13    49 1   
    36    14    16 ar  
    37    14    50 1   
    38    15    17 1   
    39    15    30 1   
    40    15    51 1   
    41    16    18 ar  
    42    16    25 1   
    43    17    19 1   
    44    17    31 1   
    45    17    52 1   
    46    18    20 ar  
    47    18    24 1   
    48    19    32 1   
    49    19    53 1   
    50    19    54 1   
    51    20    23 1   
    52    21    24 1   
    53    21    25 2   
    54    21    55 1   
    55    22    33 1   
    56    22    56 1   
    57    23    57 1   
    58    23    58 1   
    59    26    33 2   
    60    27    59 1   
    61    28    60 1   
    62    29    33 2   
    63    30    61 1   
    64    32    33 1   
@<TRIPOS>SUBSTRUCTURE
     1 RRW         1 TEMP              0 ****  ****    0 ROOT
