@<TRIPOS>MOLECULE
RRW
   62    64     1     0     0
SMALL
No Charge or Current Charge


@<TRIPOS>ATOM
      1 N           -0.0140    -0.7450   -28.5340 n8         1 RRW      -1.043200
      2 CA          -1.5000    -0.5550   -28.3190 c3         1 RRW       0.114500
      3 C           -2.3020    -1.7830   -27.7510 c          1 RRW       0.586100
      4 O           -3.2920    -1.6380   -27.0510 o          1 RRW      -0.544100
      5 CB          -2.1800    -0.0390   -29.6190 c3         1 RRW      -0.066400
      6 CG          -1.6750     1.3290   -30.1650 c3         1 RRW      -0.053700
      7 CD1         -1.9000     2.4940   -29.1700 c3         1 RRW      -0.090100
      8 CD2         -2.3250     1.6480   -31.5310 c3         1 RRW      -0.090100
      9 C1         -10.8820    -3.2970   -26.6190 ca         1 RRW      -0.153000
     10 C7          -7.0900    -3.8140   -29.2080 c5         1 RRW       0.320300
     11 C2         -10.8740    -4.1510   -25.4880 ca         1 RRW      -0.073300
     12 C9          -6.2360    -2.5070   -29.1640 c5         1 RRW       0.084300
     13 C2M        -12.0580    -4.1720   -24.5310 c3         1 RRW       0.211900
     14 C3          -9.7480    -4.9670   -25.2400 ca         1 RRW      -0.077000
     15 C10         -5.4960    -2.6170   -30.5250 c5         1 RRW       0.126300
     16 C4          -8.6730    -4.9270   -26.1380 ca         1 RRW       0.097400
     17 C11         -5.1930    -4.1540   -30.5910 c5         1 RRW       0.171300
     18 C5          -8.7050    -4.1250   -27.2450 ca         1 RRW      -0.101200
     19 C12         -3.8410    -4.5810   -29.9460 c3         1 RRW       0.188600
     20 C6          -9.7880    -3.2600   -27.5060 ca         1 RRW       0.272000
     21 C8          -6.7840    -5.2320   -27.1290 cc         1 RRW       0.440700
     22 N3S         -1.8040    -3.0100   -28.0690 ns         1 RRW      -0.630300
     23 N6          -9.7890    -2.3670   -28.5470 nv         1 RRW      -1.060000
     24 N7          -7.5280    -4.3530   -27.9210 na         1 RRW      -0.193600
     25 N9          -7.4780    -5.6290   -26.0420 nd         1 RRW      -0.583100
     26 O1S         -2.7530    -4.5500   -26.2760 o          1 RRW      -0.528000
     27 O2          -7.0290    -1.2990   -29.1010 oh         1 RRW      -0.726000
     28 O2M        -12.9870    -5.1930   -24.9120 oh         1 RRW      -0.654000
     29 O2S         -1.6330    -5.5100   -28.3640 o          1 RRW      -0.528000
     30 O3          -6.3650    -2.1720   -31.5740 oh         1 RRW      -0.714000
     31 O4          -6.3080    -4.8050   -29.9190 os         1 RRW      -0.438000
     32 O5          -3.8700    -4.3220   -28.5290 os         1 RRW      -0.573700
     33 S           -2.4590    -4.4920   -27.7110 s6         1 RRW       1.438500
     34 H1           0.4100    -1.1920   -27.7090 hn         1 RRW       0.423500
     35 H2           0.1650    -1.4010   -29.3030 hn         1 RRW       0.423500
     36 H4          -1.6220     0.2150   -27.5440 h1         1 RRW       0.098700
     37 H5          -3.2600     0.0430   -29.4390 hc         1 RRW       0.045700
     38 H6          -2.0610    -0.8020   -30.3990 hc         1 RRW       0.045700
     39 H7          -0.5940     1.2490   -30.3390 hc         1 RRW       0.060700
     40 H8          -1.3270     2.3440   -28.2480 hc         1 RRW       0.035200
     41 H9          -1.5720     3.4440   -29.6080 hc         1 RRW       0.035200
     42 H10         -2.9610     2.5860   -28.9080 hc         1 RRW       0.035200
     43 H11         -1.9300     2.5850   -31.9400 hc         1 RRW       0.035200
     44 H12         -2.1180     0.8510   -32.2560 hc         1 RRW       0.035200
     45 H13         -3.4130     1.7490   -31.4330 hc         1 RRW       0.035200
     46 H15         -8.0000    -3.6320   -29.7910 h2         1 RRW       0.109700
     47 H16         -5.5290    -2.5520   -28.3230 h1         1 RRW       0.093700
     48 H17        -11.6950    -4.3500   -23.5100 h1         1 RRW       0.023200
     49 H18        -12.5490    -3.1900   -24.5380 h1         1 RRW       0.023200
     50 H19         -9.7100    -5.6160   -24.3680 ha         1 RRW       0.129000
     51 H20         -4.5690    -2.0250   -30.5230 h1         1 RRW       0.058700
     52 H21         -5.1720    -4.4890   -31.6370 h1         1 RRW       0.096700
     53 H22         -3.6800    -5.6490   -30.1440 h1         1 RRW       0.064700
     54 H23         -3.0350    -4.0210   -30.4380 h1         1 RRW       0.064700
     55 H24         -5.7960    -5.5740   -27.4120 h5         1 RRW       0.066800
     56 H25         -0.9950    -3.0990   -28.6550 hn         1 RRW       0.343500
     57 H26        -10.5550    -1.6990   -28.5940 hn         1 RRW       0.440000
     58 H27         -8.8830    -2.0030   -28.8500 hn         1 RRW       0.440000
     59 H28         -6.5320    -0.6440   -28.5490 ho         1 RRW       0.528000
     60 H29        -13.7260    -5.1570   -24.2650 ho         1 RRW       0.438000
     61 H30         -6.9530    -1.5160   -31.1210 ho         1 RRW       0.527000
     62 H14        -11.7380    -2.6510   -26.7950 ha         1 RRW       0.115000
@<TRIPOS>BOND
     1     1     2 1   
     2     1    34 1   
     3     1    35 1   
     4     2     3 1   
     5     2     5 1   
     6     2    36 1   
     7     3     4 2   
     8     3    22 1   
     9     5     6 1   
    10     5    37 1   
    11     5    38 1   
    12     6     7 1   
    13     6     8 1   
    14     6    39 1   
    15     7    40 1   
    16     7    41 1   
    17     7    42 1   
    18     8    43 1   
    19     8    44 1   
    20     8    45 1   
    21     9    11 ar  
    22     9    20 ar  
    23     9    62 1   
    24    10    12 1   
    25    10    24 1   
    26    10    31 1   
    27    10    46 1   
    28    11    13 1   
    29    11    14 ar  
    30    12    15 1   
    31    12    27 1   
    32    12    47 1   
    33    13    28 1   
    34    13    48 1   
    35    13    49 1   
    36    14    16 ar  
    37    14    50 1   
    38    15    17 1   
    39    15    30 1   
    40    15    51 1   
    41    16    18 ar  
    42    16    25 1   
    43    17    19 1   
    44    17    31 1   
    45    17    52 1   
    46    18    20 ar  
    47    18    24 1   
    48    19    32 1   
    49    19    53 1   
    50    19    54 1   
    51    20    23 1   
    52    21    24 1   
    53    21    25 2   
    54    21    55 1   
    55    22    33 1   
    56    22    56 1   
    57    23    57 1   
    58    23    58 1   
    59    26    33 2   
    60    27    59 1   
    61    28    60 1   
    62    29    33 2   
    63    30    61 1   
    64    32    33 1   
@<TRIPOS>SUBSTRUCTURE
     1 RRW         1 TEMP              0 ****  ****    0 ROOT
