@<TRIPOS>MOLECULE
RRY
   22    22     1     0     0
SMALL
No Charge or Current Charge


@<TRIPOS>ATOM
      1 O3         -67.0520   -22.8600   185.5850 oh         1 RRY      -0.682000
      2 C3         -68.0600   -22.0990   184.8950 c5         1 RRY       0.172300
      3 C4         -69.0550   -21.4010   185.8680 c5         1 RRY       0.142300
      4 O4         -69.9720   -22.3190   186.4860 oh         1 RRY      -0.697000
      5 C5         -69.7300   -20.4060   184.8730 c5         1 RRY       0.128300
      6 C6         -70.3270   -19.1460   185.5400 c3         1 RRY       0.115600
      7 Cl6        -71.1320   -18.0480   184.3290 cl         1 RRY      -0.264000
      8 O5         -68.6970   -20.0440   183.9080 os         1 RRY      -0.470000
      9 C2         -67.5170   -20.8290   184.1430 c5         1 RRY       0.343000
     10 C1         -66.8110   -21.1070   182.7850 c3         1 RRY       0.094600
     11 Cl1        -65.2060   -21.9690   182.9490 cl         1 RRY      -0.266000
     12 O2         -66.6600   -20.0590   184.9770 oh         1 RRY      -0.698000
     13 HO3        -66.3200   -22.2190   185.7550 ho         1 RRY       0.522000
     14 H3         -68.6040   -22.7470   184.1920 h1         1 RRY       0.059700
     15 H4         -68.5060   -20.8450   186.6430 h1         1 RRY       0.070700
     16 HO4        -69.4230   -23.0450   186.8670 ho         1 RRY       0.514000
     17 H5         -70.5350   -20.9170   184.3270 h1         1 RRY       0.082700
     18 H61        -71.0840   -19.4380   186.2780 h1         1 RRY       0.071200
     19 H62        -69.5380   -18.5730   186.0430 h1         1 RRY       0.071200
     20 H11        -67.4580   -21.7310   182.1560 h1         1 RRY       0.084700
     21 H12        -66.6250   -20.1610   182.2630 h1         1 RRY       0.084700
     22 HO2        -66.7510   -19.1370   184.6500 ho         1 RRY       0.519000
@<TRIPOS>BOND
     1     1     2 1   
     2     1    13 1   
     3     2     3 1   
     4     2     9 1   
     5     2    14 1   
     6     3     4 1   
     7     3     5 1   
     8     3    15 1   
     9     4    16 1   
    10     5     6 1   
    11     5     8 1   
    12     5    17 1   
    13     6     7 1   
    14     6    18 1   
    15     6    19 1   
    16     8     9 1   
    17     9    10 1   
    18     9    12 1   
    19    10    11 1   
    20    10    20 1   
    21    10    21 1   
    22    12    22 1   
@<TRIPOS>SUBSTRUCTURE
     1 RRY         1 TEMP              0 ****  ****    0 ROOT
