@<TRIPOS>MOLECULE
RRY
   22    22     1     0     0
SMALL
abcg2


@<TRIPOS>ATOM
      1 O3         -66.8780   -22.5570   185.7380 oh         1 RRY      -0.682000
      2 C3         -67.8690   -21.9800   184.9510 c5         1 RRY       0.172300
      3 C4         -69.0210   -21.4940   185.8130 c5         1 RRY       0.142300
      4 O4         -69.8450   -22.5520   186.2090 oh         1 RRY      -0.697000
      5 C5         -69.7100   -20.4970   184.8690 c5         1 RRY       0.128300
      6 C6         -70.3430   -19.3460   185.6080 c3         1 RRY       0.115600
      7 CL6        -71.1510   -18.2140   184.4700 cl         1 RRY      -0.264000
      8 O5         -68.7040   -20.0300   183.9810 os         1 RRY      -0.470000
      9 C2         -67.4780   -20.6910   184.2030 c5         1 RRY       0.343000
     10 C1         -66.8990   -20.9150   182.8120 c3         1 RRY       0.094600
     11 CL1        -65.3370   -21.7930   182.9110 cl         1 RRY      -0.266000
     12 O2         -66.6360   -19.9600   185.0190 oh         1 RRY      -0.698000
     13 HO3        -66.2110   -22.9470   185.1640 ho         1 RRY       0.522000
     14 H3         -68.2700   -22.6890   184.2100 h1         1 RRY       0.059700
     15 H4         -68.6100   -20.9640   186.6830 h1         1 RRY       0.070700
     16 HO4        -70.2700   -22.3240   187.0410 ho         1 RRY       0.514000
     17 H5         -70.4780   -21.0270   184.2940 h1         1 RRY       0.082700
     18 H61        -71.1050   -19.7100   186.2950 h1         1 RRY       0.071200
     19 H62        -69.6040   -18.7730   186.1650 h1         1 RRY       0.071200
     20 H11        -67.5690   -21.5170   182.2020 h1         1 RRY       0.084700
     21 H12        -66.7080   -19.9690   182.3030 h1         1 RRY       0.084700
     22 HO2        -66.3680   -19.1500   184.5680 ho         1 RRY       0.519000
@<TRIPOS>BOND
     1     1     2 1   
     2     1    13 1   
     3     2     3 1   
     4     2     9 1   
     5     2    14 1   
     6     3     4 1   
     7     3     5 1   
     8     3    15 1   
     9     4    16 1   
    10     5     6 1   
    11     5     8 1   
    12     5    17 1   
    13     6     7 1   
    14     6    18 1   
    15     6    19 1   
    16     8     9 1   
    17     9    10 1   
    18     9    12 1   
    19    10    11 1   
    20    10    20 1   
    21    10    21 1   
    22    12    22 1   
@<TRIPOS>SUBSTRUCTURE
     1 RRY         1 TEMP              0 ****  ****    0 ROOT
