@<TRIPOS>MOLECULE
RRZ
   47    49     1     0     0
SMALL
abcg2


@<TRIPOS>ATOM
      1 C2           8.2180   -17.5930   -19.6480 c2         1 RRZ      -0.206200
      2 N2           8.8880   -14.3960   -17.9520 n3         1 RRZ      -0.759500
      3 C3           9.0850   -16.7130   -18.7810 c3         1 RRZ      -0.056500
      4 C5          12.5380   -15.7550   -19.7860 c3         1 RRZ      -0.065000
      5 C4          10.1020   -16.0280   -19.6920 c3         1 RRZ       0.135000
      6 C1           7.0780   -17.2620   -20.2420 c2         1 RRZ      -0.326000
      7 N1          11.3130   -15.5650   -19.0320 n          1 RRZ      -0.351800
      8 C6          12.8200   -14.6200   -20.8020 c          1 RRZ       0.715000
      9 O1          13.8520   -14.7830   -21.4780 o          1 RRZ      -0.728500
     10 O2          12.0140   -13.6740   -20.8490 o          1 RRZ      -0.728500
     11 C7          11.3860   -14.7640   -17.9560 c          1 RRZ       0.574000
     12 O3          12.4600   -14.4120   -17.4780 o          1 RRZ      -0.586000
     13 C8          10.1480   -14.2120   -17.2460 c6         1 RRZ       0.143500
     14 C9          10.0430   -14.7110   -15.8020 c6         1 RRZ      -0.086400
     15 C10          9.4970   -16.1290   -15.7290 c6         1 RRZ      -0.073400
     16 C11          8.1660   -16.2250   -16.4640 c6         1 RRZ      -0.096400
     17 C12          8.2820   -15.7300   -17.9040 c6         1 RRZ       0.243500
     18 S1           7.8790   -13.1100   -18.1480 sy         1 RRZ       1.178600
     19 O4           8.6680   -11.8990   -17.9980 o          1 RRZ      -0.549500
     20 O5           6.6660   -13.2580   -17.3580 o          1 RRZ      -0.549500
     21 C13          7.4050   -13.2500   -19.8580 ca         1 RRZ      -0.260500
     22 C14          8.3910   -13.1100   -20.8250 ca         1 RRZ      -0.003500
     23 C15          8.0130   -13.2250   -22.1500 ca         1 RRZ       0.098000
     24 CL1          9.2090   -13.0990   -23.3860 cl         1 RRZ      -0.182500
     25 C16          6.6940   -13.4550   -22.5160 ca         1 RRZ      -0.065000
     26 C17          5.7410   -13.5750   -21.5190 ca         1 RRZ       0.098000
     27 CL2          4.0990   -13.8720   -21.9540 cl         1 RRZ      -0.182500
     28 C18          6.0780   -13.4730   -20.1770 ca         1 RRZ      -0.003500
     29 H1           8.6300   -18.5780   -19.8420 ha         1 RRZ       0.164000
     30 H2           9.6520   -17.3830   -18.1280 hc         1 RRZ       0.062700
     31 H3          12.4720   -16.7060   -20.3190 h1         1 RRZ       0.043200
     32 H4          13.3840   -15.8460   -19.1060 h1         1 RRZ       0.043200
     33 H5           9.6230   -15.2380   -20.2730 h1         1 RRZ       0.051200
     34 H6          10.4310   -16.7690   -20.4210 h1         1 RRZ       0.051200
     35 H7           6.5680   -17.9640   -20.8890 ha         1 RRZ       0.159500
     36 H8           6.6030   -16.2960   -20.1260 ha         1 RRZ       0.159500
     37 H10         10.3520   -13.1420   -17.2130 h1         1 RRZ       0.111700
     38 H11         11.0160   -14.6360   -15.3170 hc         1 RRZ       0.054700
     39 H12          9.3700   -14.0350   -15.2670 hc         1 RRZ       0.054700
     40 H13          9.3640   -16.4220   -14.6860 hc         1 RRZ       0.042200
     41 H14         10.2220   -16.8320   -16.1490 hc         1 RRZ       0.042200
     42 H15          7.4160   -15.6250   -15.9430 hc         1 RRZ       0.048700
     43 H16          7.7980   -17.2540   -16.4770 hc         1 RRZ       0.048700
     44 H17          7.2760   -15.6430   -18.3140 h1         1 RRZ       0.053700
     45 H18          9.4280   -12.9460   -20.5610 ha         1 RRZ       0.175000
     46 H19          6.4180   -13.5430   -23.5580 ha         1 RRZ       0.136000
     47 H20          5.3240   -13.5780   -19.4100 ha         1 RRZ       0.175000
@<TRIPOS>BOND
     1     1     3 1   
     2     1     6 2   
     3     1    29 1   
     4     2    13 1   
     5     2    17 1   
     6     2    18 1   
     7     3     5 1   
     8     3    17 1   
     9     3    30 1   
    10     4     7 1   
    11     4     8 1   
    12     4    31 1   
    13     4    32 1   
    14     5     7 1   
    15     5    33 1   
    16     5    34 1   
    17     6    35 1   
    18     6    36 1   
    19     7    11 1   
    20     8     9 1   
    21     8    10 1   
    22    11    12 2   
    23    11    13 1   
    24    13    14 1   
    25    13    37 1   
    26    14    15 1   
    27    14    38 1   
    28    14    39 1   
    29    15    16 1   
    30    15    40 1   
    31    15    41 1   
    32    16    17 1   
    33    16    42 1   
    34    16    43 1   
    35    17    44 1   
    36    18    19 2   
    37    18    20 2   
    38    18    21 1   
    39    21    22 ar  
    40    21    28 ar  
    41    22    23 ar  
    42    22    45 1   
    43    23    24 1   
    44    23    25 ar  
    45    25    26 ar  
    46    25    46 1   
    47    26    27 1   
    48    26    28 ar  
    49    28    47 1   
@<TRIPOS>SUBSTRUCTURE
     1 RRZ         1 TEMP              0 ****  ****    0 ROOT
