@<TRIPOS>MOLECULE
RRZ
   47    49     1     0     0
SMALL
No Charge or Current Charge


@<TRIPOS>ATOM
      1 C2           8.4560   -16.9840   -20.4960 c2         1 RRZ      -0.206200
      2 N2           9.0570   -14.1330   -18.2640 n3         1 RRZ      -0.759500
      3 C3           9.2790   -16.4990   -19.3070 c3         1 RRZ      -0.056500
      4 C5          12.9320   -16.5230   -18.8550 c3         1 RRZ      -0.065000
      5 C4          10.6520   -15.9760   -19.7690 c3         1 RRZ       0.135000
      6 C1           8.2810   -16.3300   -21.6560 c2         1 RRZ      -0.326000
      7 N1          11.6360   -15.7970   -18.6790 n          1 RRZ      -0.351800
      8 C6          13.9480   -15.9050   -19.8550 c          1 RRZ       0.715000
      9 O1          15.0930   -15.7130   -19.4680 o          1 RRZ      -0.728500
     10 O2          13.5860   -15.6900   -21.0040 o          1 RRZ      -0.728500
     11 C7          11.6240   -14.5480   -18.0280 c          1 RRZ       0.574000
     12 O3          12.6200   -13.8300   -18.0280 o          1 RRZ      -0.586000
     13 C8          10.2850   -14.0550   -17.3820 c6         1 RRZ       0.143500
     14 C9          10.0140   -14.7460   -16.0080 c6         1 RRZ      -0.086400
     15 C10          9.4240   -16.1650   -16.1250 c6         1 RRZ      -0.073400
     16 C11          8.1610   -16.1290   -17.0100 c6         1 RRZ      -0.096400
     17 C12          8.4610   -15.5060   -18.4000 c6         1 RRZ       0.243500
     18 S1           7.9810   -12.8130   -18.1610 sy         1 RRZ       1.178600
     19 O4           8.7790   -11.6330   -18.5110 o          1 RRZ      -0.549500
     20 O5           7.2590   -12.9150   -16.8890 o          1 RRZ      -0.549500
     21 C13          6.8660   -13.1100   -19.5390 ca         1 RRZ      -0.260500
     22 C14          7.3390   -12.9620   -20.8600 ca         1 RRZ      -0.003500
     23 C15          6.4840   -13.2230   -21.9440 ca         1 RRZ       0.098000
     24 Cl1          7.0780   -13.0490   -23.5910 cl         1 RRZ      -0.182500
     25 C16          5.1590   -13.6310   -21.7180 ca         1 RRZ      -0.065000
     26 C17          4.6870   -13.7780   -20.4040 ca         1 RRZ       0.098000
     27 Cl2          3.0280   -14.2940   -20.1220 cl         1 RRZ      -0.182500
     28 C18          5.5340   -13.5190   -19.3120 ca         1 RRZ      -0.003500
     29 H1           7.9820   -17.9560   -20.3430 ha         1 RRZ       0.164000
     30 H2           9.5110   -17.3990   -18.7250 hc         1 RRZ       0.062700
     31 H3          12.7240   -17.5480   -19.1860 h1         1 RRZ       0.043200
     32 H4          13.4200   -16.5940   -17.8750 h1         1 RRZ       0.043200
     33 H5          10.5260   -15.0220   -20.2990 h1         1 RRZ       0.051200
     34 H6          11.0570   -16.6900   -20.4970 h1         1 RRZ       0.051200
     35 H7           7.6710   -16.7480   -22.4580 ha         1 RRZ       0.159500
     36 H8           8.7340   -15.3570   -21.8470 ha         1 RRZ       0.159500
     37 H10         10.5120   -13.0010   -17.1640 h1         1 RRZ       0.111700
     38 H11         10.9430   -14.7790   -15.4220 hc         1 RRZ       0.054700
     39 H12          9.3210   -14.1220   -15.4270 hc         1 RRZ       0.054700
     40 H13          9.1690   -16.5470   -15.1260 hc         1 RRZ       0.042200
     41 H14         10.1710   -16.8560   -16.5370 hc         1 RRZ       0.042200
     42 H15          7.3760   -15.5520   -16.5050 hc         1 RRZ       0.048700
     43 H16          7.7550   -17.1430   -17.1280 hc         1 RRZ       0.048700
     44 H17          7.4850   -15.4290   -18.8970 h1         1 RRZ       0.053700
     45 H18          8.3670   -12.6570   -21.0490 ha         1 RRZ       0.175000
     46 H19          4.5020   -13.8350   -22.5590 ha         1 RRZ       0.136000
     47 H20          5.1530   -13.6450   -18.3000 ha         1 RRZ       0.175000
@<TRIPOS>BOND
     1     1     3 1   
     2     1     6 2   
     3     1    29 1   
     4     2    13 1   
     5     2    17 1   
     6     2    18 1   
     7     3     5 1   
     8     3    17 1   
     9     3    30 1   
    10     4     7 1   
    11     4     8 1   
    12     4    31 1   
    13     4    32 1   
    14     5     7 1   
    15     5    33 1   
    16     5    34 1   
    17     6    35 1   
    18     6    36 1   
    19     7    11 1   
    20     8     9 1   
    21     8    10 1   
    22    11    12 2   
    23    11    13 1   
    24    13    14 1   
    25    13    37 1   
    26    14    15 1   
    27    14    38 1   
    28    14    39 1   
    29    15    16 1   
    30    15    40 1   
    31    15    41 1   
    32    16    17 1   
    33    16    42 1   
    34    16    43 1   
    35    17    44 1   
    36    18    19 2   
    37    18    20 2   
    38    18    21 1   
    39    21    22 ar  
    40    21    28 ar  
    41    22    23 ar  
    42    22    45 1   
    43    23    24 1   
    44    23    25 ar  
    45    25    26 ar  
    46    25    46 1   
    47    26    27 1   
    48    26    28 ar  
    49    28    47 1   
@<TRIPOS>SUBSTRUCTURE
     1 RRZ         1 TEMP              0 ****  ****    0 ROOT
