@<TRIPOS>MOLECULE
RS0
   39    42     1     0     0
SMALL
abcg2


@<TRIPOS>ATOM
      1 C02        -43.1540   -29.9840     3.2510 c          1 RS0       0.721000
      2 C03        -43.6600   -29.3110     1.9440 c5         1 RS0      -0.199700
      3 C04        -42.8850   -29.8800     0.7260 c5         1 RS0      -0.016100
      4 C05        -43.7800   -30.9980     0.2510 ca         1 RS0      -0.154300
      5 C06        -43.4840   -32.0840    -0.5660 ca         1 RS0       0.134100
      6 C08        -44.4850   -33.0120    -0.8600 ca         1 RS0      -0.157000
      7 C09        -45.7680   -32.8430    -0.3480 ca         1 RS0      -0.097000
      8 C10        -46.0790   -31.7490     0.4610 ca         1 RS0      -0.118000
      9 C11        -45.0720   -30.8420     0.7470 ca         1 RS0      -0.038300
     10 C12        -45.1400   -29.5650     1.5610 c5         1 RS0       0.163000
     11 C15        -48.1120   -29.1930     3.8840 ca         1 RS0      -0.155600
     12 C16        -49.4970   -29.1290     3.7680 ca         1 RS0      -0.002000
     13 C17        -50.2640   -29.1940     4.9270 ca         1 RS0       0.042400
     14 C18        -49.6340   -29.3070     6.1870 ca         1 RS0      -0.067200
     15 C20        -51.8310   -29.2500     6.3880 cc         1 RS0       0.396700
     16 C22        -48.2490   -29.3590     6.3190 ca         1 RS0      -0.138000
     17 C23        -47.5040   -29.3050     5.1530 ca         1 RS0      -0.049000
     18 N13        -46.0530   -29.5850     2.6790 ns         1 RS0      -0.474900
     19 N19        -50.6660   -29.3390     7.0960 na         1 RS0      -0.331600
     20 N21        -51.6440   -29.1620     5.0940 nd         1 RS0      -0.570100
     21 O01        -41.9510   -29.7710     3.5270 o          1 RS0      -0.727000
     22 O07        -42.2400   -32.2980    -1.0950 oh         1 RS0      -0.559100
     23 O24        -47.8010   -28.6460     1.5830 o          1 RS0      -0.660100
     24 O25        -43.9540   -30.6780     3.9390 o          1 RS0      -0.727000
     25 H031       -43.4720   -28.2420     2.0560 hc         1 RS0       0.051700
     26 H042       -41.8820   -30.2030     1.0090 hc         1 RS0       0.045200
     27 H041       -42.7750   -29.1170    -0.0520 hc         1 RS0       0.045200
     28 H081       -44.2450   -33.8620    -1.4860 ha         1 RS0       0.108000
     29 H091       -46.5300   -33.5750    -0.5850 ha         1 RS0       0.097000
     30 H101       -47.0770   -31.6190     0.8600 ha         1 RS0       0.119000
     31 H121       -45.4670   -28.7600     0.8980 h1         1 RS0       0.060700
     32 H161       -49.9570   -29.0340     2.7950 ha         1 RS0       0.147000
     33 H201       -52.7900   -29.2550     6.8840 h5         1 RS0       0.051800
     34 H221       -47.7720   -29.4320     7.2870 ha         1 RS0       0.117000
     35 H231       -46.4260   -29.3260     5.2340 ha         1 RS0       0.148000
     36 H131       -45.6700   -30.0580     3.4930 hn         1 RS0       0.378500
     37 H191       -50.5880   -29.4150     8.0980 hn         1 RS0       0.350000
     38 H071       -41.6340   -31.6000    -0.8110 ho         1 RS0       0.464000
     39 C14        -47.3100   -29.1170     2.6190 c          1 RS0       0.602700
@<TRIPOS>BOND
     1     1     2 1   
     2     1    21 1   
     3     1    24 1   
     4     2     3 1   
     5     2    10 1   
     6     2    25 1   
     7     3     4 1   
     8     3    26 1   
     9     3    27 1   
    10     4     5 ar  
    11     4     9 ar  
    12     5     6 ar  
    13     5    22 1   
    14     6     7 ar  
    15     6    28 1   
    16     7     8 ar  
    17     7    29 1   
    18     8     9 ar  
    19     8    30 1   
    20     9    10 1   
    21    10    18 1   
    22    10    31 1   
    23    11    12 ar  
    24    11    17 ar  
    25    11    39 1   
    26    12    13 ar  
    27    12    32 1   
    28    13    14 ar  
    29    13    20 1   
    30    14    16 ar  
    31    14    19 1   
    32    15    19 1   
    33    15    20 2   
    34    15    33 1   
    35    16    17 ar  
    36    16    34 1   
    37    17    35 1   
    38    18    36 1   
    39    18    39 1   
    40    19    37 1   
    41    22    38 1   
    42    23    39 2   
@<TRIPOS>SUBSTRUCTURE
     1 RS0         1 TEMP              0 ****  ****    0 ROOT
