@<TRIPOS>MOLECULE
RS0
   39    42     1     0     0
SMALL
No Charge or Current Charge


@<TRIPOS>ATOM
      1 C02        -43.9340   -29.3920     3.1130 c          1 RS0       0.721000
      2 C03        -44.2490   -29.1210     1.6120 c5         1 RS0      -0.199700
      3 C04        -43.0860   -29.7190     0.7200 c5         1 RS0      -0.016100
      4 C05        -43.6870   -31.0310     0.2700 ca         1 RS0      -0.154300
      5 C06        -43.0180   -32.1170    -0.3210 ca         1 RS0       0.134100
      6 C08        -43.7510   -33.2630    -0.6790 ca         1 RS0      -0.157000
      7 C09        -45.1420   -33.3150    -0.4500 ca         1 RS0      -0.097000
      8 C10        -45.7990   -32.2180     0.1380 ca         1 RS0      -0.118000
      9 C11        -45.0510   -31.0840     0.4960 ca         1 RS0      -0.038300
     10 C12        -45.5890   -29.8160     1.1060 c5         1 RS0       0.163000
     11 C15        -48.1390   -29.2080     3.8890 ca         1 RS0      -0.155600
     12 C16        -49.0770   -28.2140     4.2790 ca         1 RS0      -0.002000
     13 C17        -49.8270   -28.4040     5.4490 ca         1 RS0       0.042400
     14 C18        -49.6620   -29.5240     6.2050 ca         1 RS0      -0.067200
     15 C20        -51.1960   -28.2110     7.1120 cc         1 RS0       0.396700
     16 C22        -48.7570   -30.5350     5.8760 ca         1 RS0      -0.138000
     17 C23        -47.9880   -30.3720     4.7040 ca         1 RS0      -0.049000
     18 N13        -46.4610   -30.0010     2.2700 ns         1 RS0      -0.474900
     19 N19        -50.5170   -29.4180     7.2570 na         1 RS0      -0.331600
     20 N21        -50.7900   -27.5600     6.0010 nd         1 RS0      -0.570100
     21 O01        -43.8120   -28.4320     3.8590 o          1 RS0      -0.727000
     22 O07        -41.6760   -32.0710    -0.5550 oh         1 RS0      -0.559100
     23 O24        -47.4630   -27.9770     1.9500 o          1 RS0      -0.660100
     24 O25        -43.7900   -30.5380     3.5170 o          1 RS0      -0.727000
     25 H031       -44.3170   -28.0360     1.4830 hc         1 RS0       0.051700
     26 H042       -42.1490   -29.8360     1.2780 hc         1 RS0       0.045200
     27 H041       -42.8740   -29.0700    -0.1380 hc         1 RS0       0.045200
     28 H081       -43.2460   -34.1100    -1.1360 ha         1 RS0       0.108000
     29 H091       -45.7070   -34.2010    -0.7310 ha         1 RS0       0.097000
     30 H101       -46.8730   -32.2470     0.3090 ha         1 RS0       0.119000
     31 H121       -46.0630   -29.2230     0.3110 h1         1 RS0       0.060700
     32 H161       -49.2230   -27.3130     3.6880 ha         1 RS0       0.147000
     33 H201       -51.9440   -27.8740     7.8200 h5         1 RS0       0.051800
     34 H221       -48.6460   -31.4180     6.5010 ha         1 RS0       0.117000
     35 H231       -47.2800   -31.1570     4.4490 ha         1 RS0       0.148000
     36 H131       -46.3910   -30.8000     2.8830 hn         1 RS0       0.378500
     37 H191       -50.6460   -30.0820     8.0090 hn         1 RS0       0.350000
     38 H071       -41.3460   -31.1990    -0.2510 ho         1 RS0       0.464000
     39 C14        -47.3360   -28.9930     2.6230 c          1 RS0       0.602700
@<TRIPOS>BOND
     1     1     2 1   
     2     1    21 1   
     3     1    24 1   
     4     2     3 1   
     5     2    10 1   
     6     2    25 1   
     7     3     4 1   
     8     3    26 1   
     9     3    27 1   
    10     4     5 ar  
    11     4     9 ar  
    12     5     6 ar  
    13     5    22 1   
    14     6     7 ar  
    15     6    28 1   
    16     7     8 ar  
    17     7    29 1   
    18     8     9 ar  
    19     8    30 1   
    20     9    10 1   
    21    10    18 1   
    22    10    31 1   
    23    11    12 ar  
    24    11    17 ar  
    25    11    39 1   
    26    12    13 ar  
    27    12    32 1   
    28    13    14 ar  
    29    13    20 1   
    30    14    16 ar  
    31    14    19 1   
    32    15    19 1   
    33    15    20 2   
    34    15    33 1   
    35    16    17 ar  
    36    16    34 1   
    37    17    35 1   
    38    18    36 1   
    39    18    39 1   
    40    19    37 1   
    41    22    38 1   
    42    23    39 2   
@<TRIPOS>SUBSTRUCTURE
     1 RS0         1 TEMP              0 ****  ****    0 ROOT
