@<TRIPOS>MOLECULE
RS1
   48    50     1     0     0
SMALL
abcg2


@<TRIPOS>ATOM
      1 C1           0.9820     1.3180    -6.4930 ca         1 RS1      -0.093000
      2 C2          -0.3160     1.4160    -6.9740 ca         1 RS1       0.120000
      3 C3          -1.3300     0.6180    -6.4690 ca         1 RS1      -0.093000
      4 C4          -1.0430    -0.2900    -5.4610 ca         1 RS1      -0.105500
      5 C5           0.2530    -0.3910    -4.9810 ca         1 RS1       0.085100
      6 C6           1.2670     0.4060    -5.4890 ca         1 RS1      -0.105500
      7 O11          0.5390    -1.3270    -4.0160 os         1 RS1      -0.244200
      8 C12          0.6470    -0.9410    -2.7260 ca         1 RS1       0.196100
      9 C13          0.3250     0.3370    -2.2760 ca         1 RS1      -0.184000
     10 C14          0.4720     0.6420    -0.9330 ca         1 RS1       0.020500
     11 C15          0.9320    -0.3240    -0.0510 ca         1 RS1      -0.315500
     12 C16          1.2460    -1.6040    -0.4960 ca         1 RS1       0.020500
     13 C17          1.1020    -1.9110    -1.8340 ca         1 RS1      -0.184000
     14 S22          1.1410     0.0910     1.6530 sy         1 RS1       1.057500
     15 O23          1.3970     1.5260     1.7440 o          1 RS1      -0.517500
     16 O24          2.1170    -0.8360     2.2290 o          1 RS1      -0.517500
     17 C25         -0.4750    -0.2770     2.3580 c3         1 RS1      -0.300400
     18 C26         -0.6710     0.1200     3.8340 c6         1 RS1      -0.090000
     19 C29         -1.9760    -0.5530     4.3090 c6         1 RS1      -0.103400
     20 C30         -2.3880    -0.0610     5.6870 c6         1 RS1       0.152600
     21 O31         -2.5630     1.3350     5.7130 os         1 RS1      -0.449000
     22 C32         -1.3770     2.0170     5.3650 c6         1 RS1       0.152600
     23 C33         -0.8760     1.6340     3.9810 c6         1 RS1      -0.103400
     24 C40          0.5500    -0.3360     4.6480 c          1 RS1       0.579100
     25 N41          0.6360    -1.6680     4.8240 ns         1 RS1      -0.362400
     26 O42          1.3820     0.4380     5.0790 o          1 RS1      -0.545100
     27 O43          1.7640    -2.2090     5.3590 oh         1 RS1      -0.414100
     28 CL2         -0.6740     2.5550    -8.2290 cl         1 RS1      -0.187000
     29 H1           1.7670     1.9430    -6.8940 ha         1 RS1       0.137500
     30 H3          -2.3380     0.7000    -6.8510 ha         1 RS1       0.137500
     31 H4          -1.8260    -0.9180    -5.0570 ha         1 RS1       0.136000
     32 H6           2.2770     0.3180    -5.1110 ha         1 RS1       0.136000
     33 H13         -0.0340     1.1010    -2.9520 ha         1 RS1       0.136500
     34 H14          0.2250     1.6380    -0.5910 ha         1 RS1       0.138000
     35 H16          1.6100    -2.3600     0.1860 ha         1 RS1       0.138000
     36 H17          1.3510    -2.9000    -2.1960 ha         1 RS1       0.136500
     37 H251        -0.6170    -1.3500     2.2050 h1         1 RS1       0.095700
     38 H252        -1.2100     0.2430     1.7400 h1         1 RS1       0.095700
     39 H291        -2.7640    -0.3140     3.5900 hc         1 RS1       0.060950
     40 H292        -1.9030    -1.6420     4.3250 hc         1 RS1       0.060950
     41 H301        -3.3400    -0.5130     5.9700 h1         1 RS1       0.056700
     42 H302        -1.6450    -0.3740     6.4360 h1         1 RS1       0.056700
     43 H321        -1.6070     3.0840     5.3870 h1         1 RS1       0.056700
     44 H322        -0.5990     1.8360     6.1160 h1         1 RS1       0.056700
     45 H331         0.0350     2.1870     3.7630 hc         1 RS1       0.060950
     46 H332        -1.6200     1.9400     3.2390 hc         1 RS1       0.060950
     47 HN           0.0480    -2.3270     4.3340 hn         1 RS1       0.326500
     48 HO           2.4390    -2.1770     4.6650 ho         1 RS1       0.449000
@<TRIPOS>BOND
     1     1     2 ar  
     2     1     6 ar  
     3     1    29 1   
     4     2     3 ar  
     5     2    28 1   
     6     3     4 ar  
     7     3    30 1   
     8     4     5 ar  
     9     4    31 1   
    10     5     6 ar  
    11     5     7 1   
    12     6    32 1   
    13     7     8 1   
    14     8     9 ar  
    15     8    13 ar  
    16     9    10 ar  
    17     9    33 1   
    18    10    11 ar  
    19    10    34 1   
    20    11    12 ar  
    21    11    14 1   
    22    12    13 ar  
    23    12    35 1   
    24    13    36 1   
    25    14    15 2   
    26    14    16 2   
    27    14    17 1   
    28    17    18 1   
    29    17    37 1   
    30    17    38 1   
    31    18    19 1   
    32    18    23 1   
    33    18    24 1   
    34    19    20 1   
    35    19    39 1   
    36    19    40 1   
    37    20    21 1   
    38    20    41 1   
    39    20    42 1   
    40    21    22 1   
    41    22    23 1   
    42    22    43 1   
    43    22    44 1   
    44    23    45 1   
    45    23    46 1   
    46    24    25 1   
    47    24    26 2   
    48    25    27 1   
    49    25    47 1   
    50    27    48 1   
@<TRIPOS>SUBSTRUCTURE
     1 RS1         1 TEMP              0 ****  ****    0 ROOT
