@<TRIPOS>MOLECULE
RS1
   48    50     1     0     0
SMALL
No Charge or Current Charge


@<TRIPOS>ATOM
      1 C1           0.9950     1.5390    -6.3580 ca         1 RS1      -0.093000
      2 C2          -0.0090     1.5180    -7.3410 ca         1 RS1       0.120000
      3 C3          -1.0630     0.5920    -7.2540 ca         1 RS1      -0.093000
      4 C4          -1.1170    -0.3110    -6.1770 ca         1 RS1      -0.105500
      5 C5          -0.1220    -0.2840    -5.1850 ca         1 RS1       0.085100
      6 C6           0.9430     0.6360    -5.2800 ca         1 RS1      -0.105500
      7 O11         -0.1900    -1.1880    -4.1480 os         1 RS1      -0.244200
      8 C12          0.1660    -0.8720    -2.8560 ca         1 RS1       0.196100
      9 C13         -0.1490     0.3820    -2.3010 ca         1 RS1      -0.184000
     10 C14          0.2120     0.6770    -0.9760 ca         1 RS1       0.020500
     11 C15          0.8860    -0.2890    -0.2010 ca         1 RS1      -0.315500
     12 C16          1.1840    -1.5520    -0.7520 ca         1 RS1       0.020500
     13 C17          0.8200    -1.8380    -2.0780 ca         1 RS1      -0.184000
     14 S22          1.3370     0.0800     1.5050 sy         1 RS1       1.057500
     15 O23          1.4080     1.5390     1.6520 o          1 RS1      -0.517500
     16 O24          2.4660    -0.7870     1.8680 o          1 RS1      -0.517500
     17 C25         -0.1240    -0.5100     2.4220 c3         1 RS1      -0.300400
     18 C26         -0.4250    -0.0500     3.9120 c6         1 RS1      -0.090000
     19 C29         -1.7560    -0.7970     4.3220 c6         1 RS1      -0.103400
     20 C30         -2.4190    -0.2660     5.6270 c6         1 RS1       0.152600
     21 O31         -2.6110     1.1570     5.5410 os         1 RS1      -0.449000
     22 C32         -1.3880     1.8910     5.3430 c6         1 RS1       0.152600
     23 C33         -0.7600     1.4810     3.9900 c6         1 RS1      -0.103400
     24 C40          0.7880    -0.3700     4.8720 c          1 RS1       0.579100
     25 N41          0.5670    -1.2070     5.9590 ns         1 RS1      -0.362400
     26 O42          1.9270     0.0100     4.6420 o          1 RS1      -0.545100
     27 O43          1.6810    -1.7200     6.7200 oh         1 RS1      -0.414100
     28 Cl2          0.0580     2.6470    -8.6880 cl         1 RS1      -0.187000
     29 H1           1.8120     2.2520    -6.4340 ha         1 RS1       0.137500
     30 H3          -1.8350     0.5760    -8.0190 ha         1 RS1       0.137500
     31 H4          -1.9300    -1.0300    -6.1080 ha         1 RS1       0.136000
     32 H6           1.7280     0.6500    -4.5290 ha         1 RS1       0.136000
     33 H13         -0.6770     1.1250    -2.8910 ha         1 RS1       0.136500
     34 H14         -0.0390     1.6510    -0.5580 ha         1 RS1       0.138000
     35 H16          1.6940    -2.3120    -0.1610 ha         1 RS1       0.138000
     36 H17          1.0480    -2.8110    -2.5060 ha         1 RS1       0.136500
     37 H251        -0.0570    -1.6040     2.3910 h1         1 RS1       0.095700
     38 H252        -0.9750    -0.2190     1.7970 h1         1 RS1       0.095700
     39 H291        -2.4960    -0.6840     3.5170 hc         1 RS1       0.060950
     40 H292        -1.5860    -1.8800     4.4010 hc         1 RS1       0.060950
     41 H301        -3.3980    -0.7470     5.7650 h1         1 RS1       0.056700
     42 H302        -1.8150    -0.4920     6.5170 h1         1 RS1       0.056700
     43 H321        -1.6160     2.9670     5.3380 h1         1 RS1       0.056700
     44 H322        -0.6970     1.6930     6.1750 h1         1 RS1       0.056700
     45 H331         0.1460     2.0800     3.8340 hc         1 RS1       0.060950
     46 H332        -1.4510     1.7570     3.1820 hc         1 RS1       0.060950
     47 HN          -0.3000    -1.7330     6.0280 hn         1 RS1       0.326500
     48 HO           2.4510    -1.5050     6.1400 ho         1 RS1       0.449000
@<TRIPOS>BOND
     1     1     2 ar  
     2     1     6 ar  
     3     1    29 1   
     4     2     3 ar  
     5     2    28 1   
     6     3     4 ar  
     7     3    30 1   
     8     4     5 ar  
     9     4    31 1   
    10     5     6 ar  
    11     5     7 1   
    12     6    32 1   
    13     7     8 1   
    14     8     9 ar  
    15     8    13 ar  
    16     9    10 ar  
    17     9    33 1   
    18    10    11 ar  
    19    10    34 1   
    20    11    12 ar  
    21    11    14 1   
    22    12    13 ar  
    23    12    35 1   
    24    13    36 1   
    25    14    15 2   
    26    14    16 2   
    27    14    17 1   
    28    17    18 1   
    29    17    37 1   
    30    17    38 1   
    31    18    19 1   
    32    18    23 1   
    33    18    24 1   
    34    19    20 1   
    35    19    39 1   
    36    19    40 1   
    37    20    21 1   
    38    20    41 1   
    39    20    42 1   
    40    21    22 1   
    41    22    23 1   
    42    22    43 1   
    43    22    44 1   
    44    23    45 1   
    45    23    46 1   
    46    24    25 1   
    47    24    26 2   
    48    25    27 1   
    49    25    47 1   
    50    27    48 1   
@<TRIPOS>SUBSTRUCTURE
     1 RS1         1 TEMP              0 ****  ****    0 ROOT
