@<TRIPOS>MOLECULE
RS2
   48    50     1     0     0
SMALL
abcg2


@<TRIPOS>ATOM
      1 C1           1.2600     0.5660    -6.4860 ca         1 RS2      -0.099500
      2 C2           0.8150     1.8530    -6.7570 ca         1 RS2      -0.105000
      3 C3          -0.2980     2.3550    -6.0950 ca         1 RS2      -0.099500
      4 C4          -0.9670     1.5770    -5.1580 ca         1 RS2      -0.113500
      5 C5          -0.5110     0.2940    -4.9030 ca         1 RS2       0.084100
      6 C6           0.5970    -0.2230    -5.5550 ca         1 RS2      -0.113500
      7 O12         -1.2060    -0.4960    -4.0120 os         1 RS2      -0.247200
      8 C13         -0.7590    -0.6230    -2.7450 ca         1 RS2       0.196100
      9 C14          0.3070     0.1070    -2.2250 ca         1 RS2      -0.189000
     10 C15          0.6880    -0.0890    -0.9080 ca         1 RS2       0.015000
     11 C16          0.0070    -1.0020    -0.1150 ca         1 RS2      -0.308500
     12 C17         -1.0480    -1.7440    -0.6410 ca         1 RS2       0.015000
     13 C18         -1.4340    -1.5500    -1.9500 ca         1 RS2      -0.189000
     14 S23          0.5290    -1.2770     1.5510 sy         1 RS2       1.022500
     15 C24         -0.5570    -0.2660     2.6310 c6         1 RS2      -0.206000
     16 O25          1.8880    -0.7520     1.6890 o          1 RS2      -0.507000
     17 O26          0.2890    -2.6880     1.8570 o          1 RS2      -0.507000
     18 C27         -0.3820     1.2120     2.2570 c3         1 RS2      -0.153400
     19 C28          0.9610     1.8660     2.5110 c          1 RS2       0.617100
     20 O31          1.5290     1.8610     3.5880 o          1 RS2      -0.557100
     21 N32          1.4210     2.5350     1.4400 ns         1 RS2      -0.392400
     22 O33          2.5930     3.2180     1.5000 oh         1 RS2      -0.400100
     23 C36         -0.1760    -0.6290     4.0740 c6         1 RS2      -0.103900
     24 C37         -1.1770    -0.0240     5.0480 c6         1 RS2       0.162100
     25 O38         -2.4910    -0.4620     4.7880 os         1 RS2      -0.443000
     26 C39         -2.9230    -0.1070     3.4970 c6         1 RS2       0.162100
     27 C40         -2.0180    -0.6790     2.4080 c6         1 RS2      -0.103900
     28 H1           2.1240     0.1690    -7.0010 ha         1 RS2       0.121000
     29 H2           1.3320     2.4630    -7.4860 ha         1 RS2       0.120000
     30 H3          -0.6480     3.3570    -6.3040 ha         1 RS2       0.121000
     31 H4          -1.8350     1.9600    -4.6380 ha         1 RS2       0.130000
     32 H6           0.9350    -1.2300    -5.3430 ha         1 RS2       0.130000
     33 H14          0.8490     0.8200    -2.8300 ha         1 RS2       0.135500
     34 H15          1.5310     0.4630    -0.5170 ha         1 RS2       0.140000
     35 H17         -1.5650    -2.4800    -0.0410 ha         1 RS2       0.140000
     36 H18         -2.2520    -2.1220    -2.3680 ha         1 RS2       0.135500
     37 H271        -1.0980     1.7880     2.8480 hc         1 RS2       0.066700
     38 H272        -0.7000     1.3530     1.2210 hc         1 RS2       0.066700
     39 HNW          0.9170     2.6120     0.5690 hn         1 RS2       0.332500
     40 HOX          2.3840     4.0980     1.8420 ho         1 RS2       0.431000
     41 H361        -0.2000    -1.7140     4.1900 hc         1 RS2       0.074950
     42 H362         0.8250    -0.2880     4.3240 hc         1 RS2       0.074950
     43 H371        -0.9280    -0.3390     6.0620 h1         1 RS2       0.048450
     44 H372        -1.1190     1.0730     5.0250 h1         1 RS2       0.048450
     45 H391        -3.9280    -0.5110     3.3680 h1         1 RS2       0.048450
     46 H392        -3.0050     0.9840     3.4010 h1         1 RS2       0.048450
     47 H401        -2.3850    -0.3410     1.4360 hc         1 RS2       0.074950
     48 H402        -2.1030    -1.7680     2.4330 hc         1 RS2       0.074950
@<TRIPOS>BOND
     1     1     2 ar  
     2     1     6 ar  
     3     1    28 1   
     4     2     3 ar  
     5     2    29 1   
     6     3     4 ar  
     7     3    30 1   
     8     4     5 ar  
     9     4    31 1   
    10     5     6 ar  
    11     5     7 1   
    12     6    32 1   
    13     7     8 1   
    14     8     9 ar  
    15     8    13 ar  
    16     9    10 ar  
    17     9    33 1   
    18    10    11 ar  
    19    10    34 1   
    20    11    12 ar  
    21    11    14 1   
    22    12    13 ar  
    23    12    35 1   
    24    13    36 1   
    25    14    15 1   
    26    14    16 2   
    27    14    17 2   
    28    15    18 1   
    29    15    23 1   
    30    15    27 1   
    31    18    19 1   
    32    18    37 1   
    33    18    38 1   
    34    19    20 2   
    35    19    21 1   
    36    21    22 1   
    37    21    39 1   
    38    22    40 1   
    39    23    24 1   
    40    23    41 1   
    41    23    42 1   
    42    24    25 1   
    43    24    43 1   
    44    24    44 1   
    45    25    26 1   
    46    26    27 1   
    47    26    45 1   
    48    26    46 1   
    49    27    47 1   
    50    27    48 1   
@<TRIPOS>SUBSTRUCTURE
     1 RS2         1 TEMP              0 ****  ****    0 ROOT
