@<TRIPOS>MOLECULE
RS2
   48    50     1     0     0
SMALL
No Charge or Current Charge


@<TRIPOS>ATOM
      1 C1           1.4040     0.2410    -6.3240 ca         1 RS2      -0.099500
      2 C2           1.0720     1.3000    -7.1880 ca         1 RS2      -0.105000
      3 C3          -0.0770     2.0730    -6.9450 ca         1 RS2      -0.099500
      4 C4          -0.8930     1.7900    -5.8340 ca         1 RS2      -0.113500
      5 C5          -0.5560     0.7410    -4.9620 ca         1 RS2       0.084100
      6 C6           0.5880    -0.0420    -5.2130 ca         1 RS2      -0.113500
      7 O12         -1.3790     0.4770    -3.8910 os         1 RS2      -0.247200
      8 C13         -0.9020     0.0840    -2.6600 ca         1 RS2       0.196100
      9 C14          0.2700     0.6440    -2.1220 ca         1 RS2      -0.189000
     10 C15          0.7320     0.2360    -0.8600 ca         1 RS2       0.015000
     11 C16          0.0050    -0.7190    -0.1190 ca         1 RS2      -0.308500
     12 C17         -1.1610    -1.2910    -0.6690 ca         1 RS2       0.015000
     13 C18         -1.6160    -0.8780    -1.9320 ca         1 RS2      -0.189000
     14 S23          0.5950    -1.2540     1.5040 sy         1 RS2       1.022500
     15 C24         -0.5360    -0.4150     2.7440 c6         1 RS2      -0.206000
     16 O25          1.9480    -0.7170     1.6960 o          1 RS2      -0.507000
     17 O26          0.3520    -2.7000     1.6040 o          1 RS2      -0.507000
     18 C27         -0.5690     1.1590     2.5130 c3         1 RS2      -0.153400
     19 C28          0.7640     1.9370     2.5870 c          1 RS2       0.617100
     20 O31          1.4240     2.0300     3.6140 o          1 RS2      -0.557100
     21 N32          1.1130     2.6100     1.4220 ns         1 RS2      -0.392400
     22 O33          2.4290     3.1910     1.2590 oh         1 RS2      -0.400100
     23 C36         -0.0350    -0.7920     4.1870 c6         1 RS2      -0.103900
     24 C37         -1.0300    -0.3660     5.2950 c6         1 RS2       0.162100
     25 O38         -2.3190    -0.9650     5.0450 os         1 RS2      -0.443000
     26 C39         -2.9150    -0.5630     3.7940 c6         1 RS2       0.162100
     27 C40         -2.0020    -0.9760     2.6090 c6         1 RS2      -0.103900
     28 H1           2.2890    -0.3610    -6.5170 ha         1 RS2       0.121000
     29 H2           1.7030     1.5190    -8.0470 ha         1 RS2       0.120000
     30 H3          -0.3360     2.8890    -7.6160 ha         1 RS2       0.121000
     31 H4          -1.7830     2.3860    -5.6470 ha         1 RS2       0.130000
     32 H6           0.8440    -0.8700    -4.5560 ha         1 RS2       0.130000
     33 H14          0.8250     1.3930    -2.6810 ha         1 RS2       0.135500
     34 H15          1.6570     0.6600    -0.4720 ha         1 RS2       0.140000
     35 H17         -1.7160    -2.0550    -0.1260 ha         1 RS2       0.140000
     36 H18         -2.5200    -1.3110    -2.3510 ha         1 RS2       0.135500
     37 H271        -1.2220     1.6310     3.2540 hc         1 RS2       0.066700
     38 H272        -1.0230     1.3590     1.5350 hc         1 RS2       0.066700
     39 HNW          0.5840     2.4470     0.5680 hn         1 RS2       0.332500
     40 HOX          2.2400     4.1190     0.9840 ho         1 RS2       0.431000
     41 H361         0.1000    -1.8810     4.2610 hc         1 RS2       0.074950
     42 H362         0.9540    -0.3650     4.3940 hc         1 RS2       0.074950
     43 H371        -0.6650    -0.7080     6.2740 h1         1 RS2       0.048450
     44 H372        -1.1320     0.7280     5.3360 h1         1 RS2       0.048450
     45 H391        -3.8940    -1.0540     3.6960 h1         1 RS2       0.048450
     46 H392        -3.0860     0.5220     3.8020 h1         1 RS2       0.048450
     47 H401        -2.4650    -0.6320     1.6750 hc         1 RS2       0.074950
     48 H402        -1.9930    -2.0730     2.5610 hc         1 RS2       0.074950
@<TRIPOS>BOND
     1     1     2 ar  
     2     1     6 ar  
     3     1    28 1   
     4     2     3 ar  
     5     2    29 1   
     6     3     4 ar  
     7     3    30 1   
     8     4     5 ar  
     9     4    31 1   
    10     5     6 ar  
    11     5     7 1   
    12     6    32 1   
    13     7     8 1   
    14     8     9 ar  
    15     8    13 ar  
    16     9    10 ar  
    17     9    33 1   
    18    10    11 ar  
    19    10    34 1   
    20    11    12 ar  
    21    11    14 1   
    22    12    13 ar  
    23    12    35 1   
    24    13    36 1   
    25    14    15 1   
    26    14    16 2   
    27    14    17 2   
    28    15    18 1   
    29    15    23 1   
    30    15    27 1   
    31    18    19 1   
    32    18    37 1   
    33    18    38 1   
    34    19    20 2   
    35    19    21 1   
    36    21    22 1   
    37    21    39 1   
    38    22    40 1   
    39    23    24 1   
    40    23    41 1   
    41    23    42 1   
    42    24    25 1   
    43    24    43 1   
    44    24    44 1   
    45    25    26 1   
    46    26    27 1   
    47    26    45 1   
    48    26    46 1   
    49    27    47 1   
    50    27    48 1   
@<TRIPOS>SUBSTRUCTURE
     1 RS2         1 TEMP              0 ****  ****    0 ROOT
