@<TRIPOS>MOLECULE
RS3
   52    54     1     0     0
SMALL
No Charge or Current Charge


@<TRIPOS>ATOM
      1 O4           4.4270     3.3630    -0.7280 o          1 RS3      -0.497000
      2 C4           3.3270     3.1550    -0.2350 c          1 RS3       0.488500
      3 N3           2.5920     4.2060     0.2480 ns         1 RS3      -0.504500
      4 C2           1.3640     4.1730     0.8250 c          1 RS3       0.742400
      5 O2           0.8120     5.1830     1.2210 o          1 RS3      -0.508000
      6 C4A          2.6820     1.8030    -0.1020 cc         1 RS3       0.192500
      7 C10          1.3750     1.8170     0.5110 cc         1 RS3       0.135000
      8 N1           0.7660     2.9120     0.9440 nd         1 RS3      -0.473400
      9 N5           3.3210     0.7120    -0.5390 nd         1 RS3      -0.507000
     10 C5A          2.6080    -0.4760    -0.3140 ca         1 RS3       0.126000
     11 C6           3.2510    -1.6610    -0.7180 ca         1 RS3       0.007000
     12 C7           2.6670    -2.9260    -0.5340 ca         1 RS3      -0.146300
     13 C7M          3.4150    -4.1670    -1.0210 c3         1 RS3      -0.038800
     14 C8           1.4040    -3.0090     0.0860 ca         1 RS3       0.396000
     15 N8           0.7700    -4.2480     0.3170 nh         1 RS3      -0.815400
     16 C19          1.3500    -5.2330     1.2550 c3         1 RS3       0.199600
     17 C20         -0.6020    -4.5010    -0.1730 c3         1 RS3       0.199600
     18 C9           0.7490    -1.8360     0.4860 ca         1 RS3      -0.259000
     19 C9A          1.3210    -0.5510     0.2890 ca         1 RS3       0.050000
     20 N10          0.6460     0.6310     0.6780 na         1 RS3      -0.010000
     21 C1          -0.7720     0.5590     1.1570 c3         1 RS3       0.013600
     22 C12         -1.8120     0.2820     0.0350 c3         1 RS3       0.143300
     23 O6          -1.7270     1.3090    -0.9640 oh         1 RS3      -0.697000
     24 C3          -3.2810     0.2120     0.5770 c3         1 RS3       0.096300
     25 O3          -3.3870    -0.8230     1.5800 oh         1 RS3      -0.716000
     26 C11         -4.3560    -0.0070    -0.5420 c3         1 RS3       0.144300
     27 O1          -4.2860     1.0340    -1.5340 oh         1 RS3      -0.702000
     28 C5          -5.8120    -0.0070    -0.0030 c3         1 RS3       0.129600
     29 O5          -6.7320     0.0430    -1.1110 oh         1 RS3      -0.708000
     30 HN3          3.0080     5.1200     0.1690 hn         1 RS3       0.336500
     31 H6           4.2310    -1.5890    -1.1850 ha         1 RS3       0.141000
     32 H17M         3.8910    -4.6930    -0.1860 hc         1 RS3       0.045700
     33 H27M         2.7390    -4.8700    -1.5230 hc         1 RS3       0.045700
     34 H37M         4.2020    -3.9100    -1.7400 hc         1 RS3       0.045700
     35 H119         0.6060    -5.5450     1.9990 h1         1 RS3       0.041200
     36 H219         1.7010    -6.1200     0.7100 h1         1 RS3       0.041200
     37 H319         2.2040    -4.7990     1.7930 h1         1 RS3       0.041200
     38 H120        -0.8340    -3.8480    -1.0250 h1         1 RS3       0.041200
     39 H220        -0.7030    -5.5410    -0.5090 h1         1 RS3       0.041200
     40 H320        -1.3360    -4.3140     0.6220 h1         1 RS3       0.041200
     41 H9          -0.2130    -1.9600     0.9670 ha         1 RS3       0.131000
     42 H11         -0.8440    -0.2070     1.9360 h1         1 RS3       0.089200
     43 H21         -1.0550     1.4910     1.6570 h1         1 RS3       0.089200
     44 H2          -1.5800    -0.6880    -0.4270 h1         1 RS3       0.068700
     45 HO2         -2.6510     1.3550    -1.3490 ho         1 RS3       0.535000
     46 H3          -3.4970     1.1830     1.0470 h1         1 RS3       0.075700
     47 HO3         -3.2960    -1.6990     1.1380 ho         1 RS3       0.503000
     48 H4          -4.1740    -0.9830    -1.0150 h1         1 RS3       0.093700
     49 HO4         -5.2160     1.0620    -1.8820 ho         1 RS3       0.509000
     50 H15         -5.9790    -0.9130     0.5950 h1         1 RS3       0.026700
     51 H25         -5.9590     0.8610     0.6540 h1         1 RS3       0.026700
     52 HO5         -7.6410    -0.0590    -0.7390 ho         1 RS3       0.508000
@<TRIPOS>BOND
     1     1     2 2   
     2     2     3 1   
     3     2     6 1   
     4     3     4 1   
     5     3    30 1   
     6     4     5 2   
     7     4     8 1   
     8     6     7 1   
     9     6     9 2   
    10     7     8 2   
    11     7    20 1   
    12     9    10 1   
    13    10    11 ar  
    14    10    19 ar  
    15    11    12 ar  
    16    11    31 1   
    17    12    13 1   
    18    12    14 ar  
    19    13    32 1   
    20    13    33 1   
    21    13    34 1   
    22    14    15 1   
    23    14    18 ar  
    24    15    16 1   
    25    15    17 1   
    26    16    35 1   
    27    16    36 1   
    28    16    37 1   
    29    17    38 1   
    30    17    39 1   
    31    17    40 1   
    32    18    19 ar  
    33    18    41 1   
    34    19    20 1   
    35    20    21 1   
    36    21    22 1   
    37    21    42 1   
    38    21    43 1   
    39    22    23 1   
    40    22    24 1   
    41    22    44 1   
    42    23    45 1   
    43    24    25 1   
    44    24    26 1   
    45    24    46 1   
    46    25    47 1   
    47    26    27 1   
    48    26    28 1   
    49    26    48 1   
    50    27    49 1   
    51    28    29 1   
    52    28    50 1   
    53    28    51 1   
    54    29    52 1   
@<TRIPOS>SUBSTRUCTURE
     1 RS3         1 TEMP              0 ****  ****    0 ROOT
