@<TRIPOS>MOLECULE
RS3
   52    54     1     0     0
SMALL
abcg2


@<TRIPOS>ATOM
      1 O4           4.2040     3.2110    -0.7550 o          1 RS3      -0.497000
      2 C4           3.0780     3.0640    -0.3270 c          1 RS3       0.488500
      3 N3           2.2610     4.1060    -0.0100 ns         1 RS3      -0.504500
      4 C2           0.9440     4.0360     0.4780 c          1 RS3       0.742400
      5 O2           0.3600     5.0650     0.7160 o          1 RS3      -0.508000
      6 C4A          2.4500     1.7470    -0.1010 cc         1 RS3       0.192500
      7 C10          1.0870     1.7410     0.3710 cc         1 RS3       0.135000
      8 N1           0.3910     2.8020     0.6420 nd         1 RS3      -0.473400
      9 N5           3.1390     0.6810    -0.3430 nd         1 RS3      -0.507000
     10 C5A          2.5630    -0.5170    -0.1480 ca         1 RS3       0.126000
     11 C6           3.2960    -1.6870    -0.4190 ca         1 RS3       0.007000
     12 C7           2.7790    -2.9430    -0.2700 ca         1 RS3      -0.146300
     13 C7M          3.5800    -4.1270    -0.7330 c3         1 RS3      -0.038800
     14 C8           1.4340    -3.0620     0.2080 ca         1 RS3       0.396000
     15 N8           0.8520    -4.2930     0.3630 nh         1 RS3      -0.815400
     16 C19          1.5280    -5.3630     1.0740 c3         1 RS3       0.199600
     17 C20         -0.5860    -4.4130     0.3820 c3         1 RS3       0.199600
     18 C9           0.6840    -1.9100     0.4560 ca         1 RS3      -0.259000
     19 C9A          1.2260    -0.6400     0.2860 ca         1 RS3       0.050000
     20 N10          0.5220     0.5100     0.5480 na         1 RS3      -0.010000
     21 C1          -0.8740     0.4370     0.9540 c3         1 RS3       0.013600
     22 C12         -1.8000     0.1970    -0.2440 c3         1 RS3       0.143300
     23 O6          -1.6550     1.1880    -1.2120 oh         1 RS3      -0.697000
     24 C3          -3.2270    -0.0540     0.3030 c3         1 RS3       0.096300
     25 O3          -3.3420    -1.4150     0.6650 oh         1 RS3      -0.716000
     26 C11         -4.3380     0.4430    -0.6340 c3         1 RS3       0.144300
     27 O1          -4.2910     1.8510    -0.6930 oh         1 RS3      -0.702000
     28 C5          -5.7040    -0.0600    -0.1890 c3         1 RS3       0.129600
     29 O5          -6.6710     0.4640    -1.0590 oh         1 RS3      -0.708000
     30 HN3          2.6260     5.0390    -0.1510 hn         1 RS3       0.336500
     31 H6           4.3010    -1.5550    -0.8010 ha         1 RS3       0.141000
     32 H17M         4.0900    -4.6490     0.0770 hc         1 RS3       0.045700
     33 H27M         2.9540    -4.8550    -1.2480 hc         1 RS3       0.045700
     34 H37M         4.3510    -3.8040    -1.4320 hc         1 RS3       0.045700
     35 H119         0.9760    -5.6090     1.9850 h1         1 RS3       0.041200
     36 H219         1.6060    -6.2690     0.4700 h1         1 RS3       0.041200
     37 H319         2.5230    -5.0670     1.3880 h1         1 RS3       0.041200
     38 H120        -1.0340    -3.7950    -0.3940 h1         1 RS3       0.041200
     39 H220        -0.8520    -5.4480     0.1700 h1         1 RS3       0.041200
     40 H320        -1.0350    -4.1470     1.3470 h1         1 RS3       0.041200
     41 H9          -0.3280    -2.0180     0.8140 ha         1 RS3       0.131000
     42 H11         -0.9890    -0.3410     1.7090 h1         1 RS3       0.089200
     43 H21         -1.1250     1.3850     1.4250 h1         1 RS3       0.089200
     44 H2          -1.4910    -0.7250    -0.7500 h1         1 RS3       0.068700
     45 HO2         -2.0600     2.0070    -0.9080 ho         1 RS3       0.535000
     46 H3          -3.3540     0.4890     1.2500 h1         1 RS3       0.075700
     47 HO3         -3.3280    -1.9480    -0.1360 ho         1 RS3       0.503000
     48 H4          -4.1540     0.0930    -1.6570 h1         1 RS3       0.093700
     49 HO4         -4.7680     2.2160     0.0580 ho         1 RS3       0.509000
     50 H15         -5.7080    -1.1560    -0.1860 h1         1 RS3       0.026700
     51 H25         -5.8770     0.2510     0.8560 h1         1 RS3       0.026700
     52 HO5         -7.5310     0.1290    -0.7950 ho         1 RS3       0.508000
@<TRIPOS>BOND
     1     1     2 2   
     2     2     3 1   
     3     2     6 1   
     4     3     4 1   
     5     3    30 1   
     6     4     5 2   
     7     4     8 1   
     8     6     7 1   
     9     6     9 2   
    10     7     8 2   
    11     7    20 1   
    12     9    10 1   
    13    10    11 ar  
    14    10    19 ar  
    15    11    12 ar  
    16    11    31 1   
    17    12    13 1   
    18    12    14 ar  
    19    13    32 1   
    20    13    33 1   
    21    13    34 1   
    22    14    15 1   
    23    14    18 ar  
    24    15    16 1   
    25    15    17 1   
    26    16    35 1   
    27    16    36 1   
    28    16    37 1   
    29    17    38 1   
    30    17    39 1   
    31    17    40 1   
    32    18    19 ar  
    33    18    41 1   
    34    19    20 1   
    35    20    21 1   
    36    21    22 1   
    37    21    42 1   
    38    21    43 1   
    39    22    23 1   
    40    22    24 1   
    41    22    44 1   
    42    23    45 1   
    43    24    25 1   
    44    24    26 1   
    45    24    46 1   
    46    25    47 1   
    47    26    27 1   
    48    26    28 1   
    49    26    48 1   
    50    27    49 1   
    51    28    29 1   
    52    28    50 1   
    53    28    51 1   
    54    29    52 1   
@<TRIPOS>SUBSTRUCTURE
     1 RS3         1 TEMP              0 ****  ****    0 ROOT
