@<TRIPOS>MOLECULE
RS4
   49    53     1     0     0
SMALL
No Charge or Current Charge


@<TRIPOS>ATOM
      1 C10         -1.0680    -1.7310     5.3330 ca         1 RS4      -0.150300
      2 C11         -0.6360    -1.3970     4.0580 ca         1 RS4       0.377800
      3 C14         -2.4420    -3.1800     6.9080 c3         1 RS4      -0.039100
      4 C15         -3.8200    -2.5700     7.2330 c3         1 RS4      -0.088100
      5 C16         -0.4690    -0.8000     6.4010 c5         1 RS4       0.140300
      6 C17          0.2470    -0.2650     4.1820 cc         1 RS4      -0.006200
      7 C1          -1.8610    -3.0600     3.0520 ca         1 RS4       0.235000
      8 C19          0.8860     0.3870     3.1570 cd         1 RS4      -0.211000
      9 C2          -2.3710    -3.4880     4.3210 ca         1 RS4      -0.019000
     10 C20          1.7210     1.5130     3.5170 cd         1 RS4       0.039800
     11 C21          1.8250     1.8580     4.8590 cc         1 RS4      -0.274400
     12 C22          1.1150     1.1450     5.9550 c          1 RS4       0.575200
     13 C24          2.6710     3.0370     5.2550 c6         1 RS4       0.234800
     14 C25          2.4750     2.3300     2.4710 c6         1 RS4       0.121200
     15 C28          3.8290     2.8650     3.0900 c          1 RS4       0.641100
     16 C3          -3.2790    -4.5760     4.3710 ca         1 RS4      -0.214000
     17 C4          -3.6700    -5.2330     3.1950 ca         1 RS4       0.157100
     18 C5          -3.1680    -4.8190     1.9570 ca         1 RS4      -0.122000
     19 C6          -2.2710    -3.7400     1.8890 ca         1 RS4      -0.045000
     20 C7           1.6230     3.5650     2.0190 c3         1 RS4      -0.101400
     21 C8           0.2340     3.2480     1.4160 c3         1 RS4      -0.088100
     22 C9          -1.9580    -2.8070     5.5040 ca         1 RS4      -0.010300
     23 N13         -0.9990    -2.0220     2.9250 nb         1 RS4      -0.606000
     24 N18          0.3400     0.0750     5.5050 n          1 RS4      -0.270000
     25 O1           2.7520     1.5280     1.2920 oh         1 RS4      -0.631000
     26 O23          1.1840     1.4480     7.1380 o          1 RS4      -0.564000
     27 O29          3.8590     3.1060     4.4450 os         1 RS4      -0.429100
     28 O31          4.8320     3.0180     2.4030 o          1 RS4      -0.494000
     29 O7          -4.5430    -6.2770     3.2530 oh         1 RS4      -0.524100
     30 H1          -2.4820    -4.2680     7.0340 hc         1 RS4       0.053700
     31 H2          -1.7270    -2.8400     7.6670 hc         1 RS4       0.053700
     32 H3          -4.1360    -2.8540     8.2450 hc         1 RS4       0.040367
     33 H4          -3.7780    -1.4760     7.1810 hc         1 RS4       0.040367
     34 H5          -4.5800    -2.9200     6.5250 hc         1 RS4       0.040367
     35 H6          -1.2420    -0.2350     6.9390 h1         1 RS4       0.085700
     36 H7           0.1610    -1.3430     7.1190 h1         1 RS4       0.085700
     37 H8           0.7630     0.0720     2.1240 ha         1 RS4       0.236000
     38 H9           2.9800     2.9920     6.3090 h1         1 RS4       0.079700
     39 H10          2.1020     3.9700     5.1280 h1         1 RS4       0.079700
     40 H11         -3.6900    -4.9160     5.3150 ha         1 RS4       0.119000
     41 H12         -3.4730    -5.3300     1.0480 ha         1 RS4       0.138000
     42 H13         -1.8880    -3.4230     0.9230 ha         1 RS4       0.140000
     43 H14          2.1890     4.1450     1.2780 hc         1 RS4       0.054700
     44 H15          1.4710     4.2430     2.8670 hc         1 RS4       0.054700
     45 H16         -0.2590     4.1720     1.0930 hc         1 RS4       0.042033
     46 H17          0.3220     2.5880     0.5450 hc         1 RS4       0.042033
     47 H18         -0.4140     2.7620     2.1550 hc         1 RS4       0.042033
     48 H19          3.4880     1.9700     0.8130 ho         1 RS4       0.469000
     49 H20         -4.7860    -6.4270     4.1910 ho         1 RS4       0.469000
@<TRIPOS>BOND
     1     1     2 ar  
     2     1     5 1   
     3     1    22 ar  
     4     2     6 1   
     5     2    23 ar  
     6     3     4 1   
     7     3    22 1   
     8     3    30 1   
     9     3    31 1   
    10     4    32 1   
    11     4    33 1   
    12     4    34 1   
    13     5    24 1   
    14     5    35 1   
    15     5    36 1   
    16     6     8 2   
    17     6    24 1   
    18     7     9 ar  
    19     7    19 ar  
    20     7    23 ar  
    21     8    10 1   
    22     8    37 1   
    23     9    16 ar  
    24     9    22 ar  
    25    10    11 2   
    26    10    14 1   
    27    11    12 1   
    28    11    13 1   
    29    12    24 1   
    30    12    26 2   
    31    13    27 1   
    32    13    38 1   
    33    13    39 1   
    34    14    15 1   
    35    14    20 1   
    36    14    25 1   
    37    15    27 1   
    38    15    28 2   
    39    16    17 ar  
    40    16    40 1   
    41    17    18 ar  
    42    17    29 1   
    43    18    19 ar  
    44    18    41 1   
    45    19    42 1   
    46    20    21 1   
    47    20    43 1   
    48    20    44 1   
    49    21    45 1   
    50    21    46 1   
    51    21    47 1   
    52    25    48 1   
    53    29    49 1   
@<TRIPOS>SUBSTRUCTURE
     1 RS4         1 TEMP              0 ****  ****    0 ROOT
