@<TRIPOS>MOLECULE
RS4
   49    53     1     0     0
SMALL
abcg2


@<TRIPOS>ATOM
      1 C10         -1.0930    -1.7320     5.2980 ca         1 RS4      -0.150300
      2 C11         -0.6500    -1.4400     3.9940 ca         1 RS4       0.377800
      3 C14         -2.4760    -3.0800     6.8870 c3         1 RS4      -0.039100
      4 C15         -3.8420    -2.4310     7.1210 c3         1 RS4      -0.088100
      5 C16         -0.4860    -0.7580     6.2560 c5         1 RS4       0.140300
      6 C17          0.2440    -0.2930     4.0630 cc         1 RS4      -0.006200
      7 C1          -1.8270    -3.1250     3.0880 ca         1 RS4       0.235000
      8 C19          0.9160     0.3720     3.0870 cd         1 RS4      -0.211000
      9 C2          -2.3460    -3.5100     4.3600 ca         1 RS4      -0.019000
     10 C20          1.7120     1.4660     3.4920 cd         1 RS4       0.039800
     11 C21          1.8190     1.8100     4.8080 cc         1 RS4      -0.274400
     12 C22          1.0940     1.1150     5.8420 c          1 RS4       0.575200
     13 C24          2.7110     2.9320     5.2160 c6         1 RS4       0.234800
     14 C25          2.4380     2.3260     2.4870 c6         1 RS4       0.121200
     15 C28          3.7860     2.7710     3.0700 c          1 RS4       0.641100
     16 C3          -3.2380    -4.6010     4.4280 ca         1 RS4      -0.214000
     17 C4          -3.6020    -5.2860     3.2940 ca         1 RS4       0.157100
     18 C5          -3.0760    -4.9090     2.0350 ca         1 RS4      -0.122000
     19 C6          -2.2140    -3.8590     1.9420 ca         1 RS4      -0.045000
     20 C7           1.6180     3.6030     2.1850 c3         1 RS4      -0.101400
     21 C8           0.2410     3.3240     1.6020 c3         1 RS4      -0.088100
     22 C9          -1.9490    -2.7750     5.5170 ca         1 RS4      -0.010300
     23 N13         -0.9790    -2.0880     2.9160 nb         1 RS4      -0.606000
     24 N18          0.3270     0.0740     5.3710 n          1 RS4      -0.270000
     25 O1           2.6530     1.5670     1.3400 oh         1 RS4      -0.631000
     26 O23          1.1210     1.3870     7.0380 o          1 RS4      -0.564000
     27 O29          3.8500     3.0580     4.3610 os         1 RS4      -0.429100
     28 O31          4.7660     2.8910     2.3860 o          1 RS4      -0.494000
     29 O7          -4.4550    -6.3220     3.2940 oh         1 RS4      -0.524100
     30 H1          -2.5450    -4.1580     7.0380 hc         1 RS4       0.053700
     31 H2          -1.7710    -2.7160     7.6360 hc         1 RS4       0.053700
     32 H3          -4.2020    -2.6540     8.1240 hc         1 RS4       0.040367
     33 H4          -3.7810    -1.3480     7.0180 hc         1 RS4       0.040367
     34 H5          -4.5840    -2.7940     6.4100 hc         1 RS4       0.040367
     35 H6          -1.2300    -0.1470     6.7730 h1         1 RS4       0.085700
     36 H7           0.1420    -1.2330     7.0140 h1         1 RS4       0.085700
     37 H8           0.8240     0.0660     2.0570 ha         1 RS4       0.236000
     38 H9           3.1100     2.7670     6.2150 h1         1 RS4       0.079700
     39 H10          2.1780     3.8870     5.2330 h1         1 RS4       0.079700
     40 H11         -3.6480    -4.9050     5.3840 ha         1 RS4       0.119000
     41 H12         -3.3690    -5.4630     1.1520 ha         1 RS4       0.138000
     42 H13         -1.8080    -3.5620     0.9830 ha         1 RS4       0.140000
     43 H14          2.1990     4.2100     1.4830 hc         1 RS4       0.054700
     44 H15          1.5140     4.2040     3.0910 hc         1 RS4       0.054700
     45 H16         -0.2470     4.2640     1.3490 hc         1 RS4       0.042033
     46 H17          0.2980     2.7280     0.6920 hc         1 RS4       0.042033
     47 H18         -0.4030     2.8010     2.3100 hc         1 RS4       0.042033
     48 H19          3.0800     2.1150     0.6720 ho         1 RS4       0.469000
     49 H20         -4.7640    -6.5100     4.1880 ho         1 RS4       0.469000
@<TRIPOS>BOND
     1     1     2 ar  
     2     1     5 1   
     3     1    22 ar  
     4     2     6 1   
     5     2    23 ar  
     6     3     4 1   
     7     3    22 1   
     8     3    30 1   
     9     3    31 1   
    10     4    32 1   
    11     4    33 1   
    12     4    34 1   
    13     5    24 1   
    14     5    35 1   
    15     5    36 1   
    16     6     8 2   
    17     6    24 1   
    18     7     9 ar  
    19     7    19 ar  
    20     7    23 ar  
    21     8    10 1   
    22     8    37 1   
    23     9    16 ar  
    24     9    22 ar  
    25    10    11 2   
    26    10    14 1   
    27    11    12 1   
    28    11    13 1   
    29    12    24 1   
    30    12    26 2   
    31    13    27 1   
    32    13    38 1   
    33    13    39 1   
    34    14    15 1   
    35    14    20 1   
    36    14    25 1   
    37    15    27 1   
    38    15    28 2   
    39    16    17 ar  
    40    16    40 1   
    41    17    18 ar  
    42    17    29 1   
    43    18    19 ar  
    44    18    41 1   
    45    19    42 1   
    46    20    21 1   
    47    20    43 1   
    48    20    44 1   
    49    21    45 1   
    50    21    46 1   
    51    21    47 1   
    52    25    48 1   
    53    29    49 1   
@<TRIPOS>SUBSTRUCTURE
     1 RS4         1 TEMP              0 ****  ****    0 ROOT
