@<TRIPOS>MOLECULE
RS5
   54    57     1     0     0
SMALL
No Charge or Current Charge


@<TRIPOS>ATOM
      1 C1          56.6790    45.0870    37.8350 c3         1 RS5       0.157600
      2 C2          55.6860    44.1510    37.1090 c3         1 RS5       0.157600
      3 C3          53.6470    44.4260    35.7450 ca         1 RS5       0.153100
      4 C4          52.7190    45.3080    35.1680 ca         1 RS5      -0.166500
      5 C5          51.6420    44.8170    34.4110 ca         1 RS5      -0.056000
      6 C6          51.4860    43.4300    34.2230 ca         1 RS5      -0.137300
      7 O1          57.7100    44.3240    38.4890 oh         1 RS5      -0.668000
      8 C7          52.4140    42.5430    34.8010 ca         1 RS5      -0.056000
      9 C8          53.4910    43.0360    35.5590 ca         1 RS5      -0.166500
     10 C9          50.3250    42.8830    33.3930 c3         1 RS5      -0.062400
     11 C10         50.7560    42.2290    32.1050 cc         1 RS5       0.530900
     12 C11         52.0420    42.6650    30.1040 c          1 RS5       0.616600
     13 C12         51.6640    41.3030    29.7740 cc         1 RS5      -0.330600
     14 C13         50.8950    40.5410    30.5810 cd         1 RS5       0.183400
     15 O2          54.6820    44.9690    36.4770 os         1 RS5      -0.357100
     16 O3          52.7240    43.4170    29.4300 o          1 RS5      -0.540000
     17 C14         51.9640    40.5090    28.6350 cc         1 RS5       0.347300
     18 N1          51.5300    43.0320    31.3020 ns         1 RS5      -0.426400
     19 C15         52.8000    40.9820    27.4600 c3         1 RS5      -0.096000
     20 C16         53.5630    39.8350    26.7500 c3         1 RS5      -0.083100
     21 C17         51.9470    41.7890    26.4540 c3         1 RS5      -0.083100
     22 C18         50.0020    38.3360    30.4890 ca         1 RS5       0.037800
     23 C19         48.6190    38.2440    30.2240 ca         1 RS5       0.145000
     24 C20         47.8490    37.2350    30.8280 ca         1 RS5      -0.104000
     25 C21         48.4510    36.3120    31.6990 ca         1 RS5      -0.084000
     26 N4          51.4190    39.2970    28.6790 nd         1 RS5      -0.481800
     27 N2          50.3970    40.9790    31.8050 nd         1 RS5      -0.632100
     28 C22         49.8270    36.4000    31.9680 ca         1 RS5      -0.104000
     29 C23         50.6020    37.4080    31.3680 ca         1 RS5       0.145000
     30 N3          50.7660    39.3380    29.8970 na         1 RS5       0.198000
     31 Cl1         47.8190    39.3860    29.1400 cl         1 RS5      -0.170000
     32 Cl2         52.3270    37.4840    31.7380 cl         1 RS5      -0.170000
     33 H3          57.1220    45.7740    37.1010 h1         1 RS5       0.037700
     34 H2          56.1280    45.6890    38.5700 h1         1 RS5       0.037700
     35 H4          55.2290    43.4710    37.8390 h1         1 RS5       0.050200
     36 H5          56.2280    43.5570    36.3620 h1         1 RS5       0.050200
     37 H6          52.8360    46.3790    35.3100 ha         1 RS5       0.127500
     38 H7          50.9330    45.5160    33.9730 ha         1 RS5       0.116500
     39 H1          58.3080    44.9690    38.9310 ho         1 RS5       0.451000
     40 H8          52.3030    41.4690    34.6630 ha         1 RS5       0.116500
     41 H9          54.1900    42.3260    35.9910 ha         1 RS5       0.127500
     42 H11         49.6100    43.6790    33.1580 hc         1 RS5       0.074700
     43 H10         49.7630    42.1580    33.9940 hc         1 RS5       0.074700
     44 H23         51.7590    43.9620    31.6170 hn         1 RS5       0.328500
     45 H13         53.5760    41.6530    27.8420 hc         1 RS5       0.069700
     46 H14         54.1810    39.2810    27.4660 hc         1 RS5       0.040033
     47 H15         52.8680    39.1300    26.2770 hc         1 RS5       0.040033
     48 H16         54.2240    40.2340    25.9710 hc         1 RS5       0.040033
     49 H17         51.4620    42.6390    26.9490 hc         1 RS5       0.040033
     50 H19         52.5700    42.1800    25.6400 hc         1 RS5       0.040033
     51 H18         51.1640    41.1580    26.0150 hc         1 RS5       0.040033
     52 H20         46.7840    37.1700    30.6190 ha         1 RS5       0.137000
     53 H21         47.8530    35.5310    32.1660 ha         1 RS5       0.126000
     54 H22         50.2950    35.6890    32.6440 ha         1 RS5       0.137000
@<TRIPOS>BOND
     1     1     2 1   
     2     1     7 1   
     3     1    33 1   
     4     1    34 1   
     5     2    15 1   
     6     2    35 1   
     7     2    36 1   
     8     3     4 ar  
     9     3     9 ar  
    10     3    15 1   
    11     4     5 ar  
    12     4    37 1   
    13     5     6 ar  
    14     5    38 1   
    15     6     8 ar  
    16     6    10 1   
    17     7    39 1   
    18     8     9 ar  
    19     8    40 1   
    20     9    41 1   
    21    10    11 1   
    22    10    42 1   
    23    10    43 1   
    24    11    18 1   
    25    11    27 2   
    26    12    13 1   
    27    12    16 2   
    28    12    18 1   
    29    13    14 2   
    30    13    17 1   
    31    14    27 1   
    32    14    30 1   
    33    17    19 1   
    34    17    26 2   
    35    18    44 1   
    36    19    20 1   
    37    19    21 1   
    38    19    45 1   
    39    20    46 1   
    40    20    47 1   
    41    20    48 1   
    42    21    49 1   
    43    21    50 1   
    44    21    51 1   
    45    22    23 ar  
    46    22    29 ar  
    47    22    30 1   
    48    23    24 ar  
    49    23    31 1   
    50    24    25 ar  
    51    24    52 1   
    52    25    28 ar  
    53    25    53 1   
    54    26    30 1   
    55    28    29 ar  
    56    28    54 1   
    57    29    32 1   
@<TRIPOS>SUBSTRUCTURE
     1 RS5         1 TEMP              0 ****  ****    0 ROOT
