@<TRIPOS>MOLECULE
RS5
   54    57     1     0     0
SMALL
abcg2


@<TRIPOS>ATOM
      1 C1          56.2030    43.6610    38.0810 c3         1 RS5       0.157600
      2 C2          54.9490    43.2140    37.3590 c3         1 RS5       0.157600
      3 C3          53.6050    44.0010    35.5400 ca         1 RS5       0.153100
      4 C4          53.3820    44.9920    34.5810 ca         1 RS5      -0.166500
      5 C5          52.2800    44.9140    33.7460 ca         1 RS5      -0.056000
      6 C6          51.3770    43.8530    33.8430 ca         1 RS5      -0.137300
      7 O1          56.4230    42.7290    39.1370 oh         1 RS5      -0.668000
      8 C7          51.6110    42.8720    34.8010 ca         1 RS5      -0.056000
      9 C8          52.7120    42.9360    35.6510 ca         1 RS5      -0.166500
     10 C9          50.2010    43.7420    32.8940 c3         1 RS5      -0.062400
     11 C10         50.6050    43.0020    31.6500 cc         1 RS5       0.530900
     12 C11         51.5640    43.2510    29.3850 c          1 RS5       0.616600
     13 C12         51.5220    41.8220    29.3570 cc         1 RS5      -0.330600
     14 C13         51.0330    41.1540    30.4810 cd         1 RS5       0.183400
     15 O2          54.7120    44.1570    36.3160 os         1 RS5      -0.357100
     16 O3          51.9640    44.0290    28.5250 o          1 RS5      -0.540000
     17 C14         51.8970    40.8000    28.4360 cc         1 RS5       0.347300
     18 N1          51.0620    43.7460    30.6060 ns         1 RS5      -0.426400
     19 C15         52.4390    40.9770    27.0490 c3         1 RS5      -0.096000
     20 C16         53.0790    39.7060    26.4940 c3         1 RS5      -0.083100
     21 C17         51.3290    41.4940    26.1180 c3         1 RS5      -0.083100
     22 C18         50.7940    38.7570    31.0640 ca         1 RS5       0.037800
     23 C19         49.5910    38.0660    30.9060 ca         1 RS5       0.145000
     24 C20         49.2600    37.0050    31.7370 ca         1 RS5      -0.104000
     25 C21         50.1390    36.6340    32.7450 ca         1 RS5      -0.084000
     26 N4          51.6590    39.6110    28.9600 nd         1 RS5      -0.481800
     27 N2          50.5640    41.6960    31.6270 nd         1 RS5      -0.632100
     28 C22         51.3390    37.3100    32.9310 ca         1 RS5      -0.104000
     29 C23         51.6590    38.3630    32.0870 ca         1 RS5       0.145000
     30 N3          51.1260    39.8310    30.2130 na         1 RS5       0.198000
     31 CL1         48.4840    38.5570    29.6600 cl         1 RS5      -0.170000
     32 CL2         53.1630    39.2090    32.3060 cl         1 RS5      -0.170000
     33 H3          57.0460    43.6740    37.3820 h1         1 RS5       0.037700
     34 H2          56.0610    44.6740    38.4710 h1         1 RS5       0.037700
     35 H4          54.1010    43.1940    38.0510 h1         1 RS5       0.050200
     36 H5          55.0870    42.2120    36.9440 h1         1 RS5       0.050200
     37 H6          54.0780    45.8190    34.5080 ha         1 RS5       0.127500
     38 H7          52.1170    45.6930    33.0100 ha         1 RS5       0.116500
     39 H1          57.2260    42.9840    39.6060 ho         1 RS5       0.451000
     40 H8          50.9260    42.0380    34.8920 ha         1 RS5       0.116500
     41 H9          52.8590    42.1590    36.3870 ha         1 RS5       0.127500
     42 H11         49.8350    44.7340    32.6260 hc         1 RS5       0.074700
     43 H10         49.3880    43.1890    33.3620 hc         1 RS5       0.074700
     44 H23         51.0590    44.7550    30.6960 hn         1 RS5       0.328500
     45 H13         53.2040    41.7560    27.1110 hc         1 RS5       0.069700
     46 H14         53.8800    39.3470    27.1420 hc         1 RS5       0.040033
     47 H15         52.3420    38.9070    26.3940 hc         1 RS5       0.040033
     48 H16         53.4980    39.9070    25.5070 hc         1 RS5       0.040033
     49 H17         50.8920    42.4170    26.5010 hc         1 RS5       0.040033
     50 H19         51.7360    41.6940    25.1250 hc         1 RS5       0.040033
     51 H18         50.5350    40.7500    26.0220 hc         1 RS5       0.040033
     52 H20         48.3240    36.4840    31.5960 ha         1 RS5       0.137000
     53 H21         49.8850    35.8100    33.3990 ha         1 RS5       0.126000
     54 H22         52.0220    37.0230    33.7180 ha         1 RS5       0.137000
@<TRIPOS>BOND
     1     1     2 1   
     2     1     7 1   
     3     1    33 1   
     4     1    34 1   
     5     2    15 1   
     6     2    35 1   
     7     2    36 1   
     8     3     4 ar  
     9     3     9 ar  
    10     3    15 1   
    11     4     5 ar  
    12     4    37 1   
    13     5     6 ar  
    14     5    38 1   
    15     6     8 ar  
    16     6    10 1   
    17     7    39 1   
    18     8     9 ar  
    19     8    40 1   
    20     9    41 1   
    21    10    11 1   
    22    10    42 1   
    23    10    43 1   
    24    11    18 1   
    25    11    27 2   
    26    12    13 1   
    27    12    16 2   
    28    12    18 1   
    29    13    14 2   
    30    13    17 1   
    31    14    27 1   
    32    14    30 1   
    33    17    19 1   
    34    17    26 2   
    35    18    44 1   
    36    19    20 1   
    37    19    21 1   
    38    19    45 1   
    39    20    46 1   
    40    20    47 1   
    41    20    48 1   
    42    21    49 1   
    43    21    50 1   
    44    21    51 1   
    45    22    23 ar  
    46    22    29 ar  
    47    22    30 1   
    48    23    24 ar  
    49    23    31 1   
    50    24    25 ar  
    51    24    52 1   
    52    25    28 ar  
    53    25    53 1   
    54    26    30 1   
    55    28    29 ar  
    56    28    54 1   
    57    29    32 1   
@<TRIPOS>SUBSTRUCTURE
     1 RS5         1 TEMP              0 ****  ****    0 ROOT
