@<TRIPOS>MOLECULE
RS6
   55    58     1     0     0
SMALL
No Charge or Current Charge


@<TRIPOS>ATOM
      1 N1         -22.5280     7.0390    30.1660 n          1 RS6      -0.422800
      2 N3         -16.2220     5.4270    27.3390 nb         1 RS6      -0.642000
      3 C4         -22.3680     8.5040    30.4460 c3         1 RS6       0.011000
      4 C5         -22.6920     6.6320    28.7540 c6         1 RS6       0.117000
      5 C6         -22.0660     5.2460    28.5130 c6         1 RS6      -0.115400
      6 C7         -20.5290     5.3380    28.5120 c          1 RS6       0.603100
      7 C8         -18.5910     5.8390    26.9110 ca         1 RS6      -0.087000
      8 C10        -15.9240     6.1440    26.2330 ca         1 RS6       0.356900
      9 C13        -17.5210     8.0550    23.4650 ca         1 RS6       0.168000
     10 C15        -19.2550     7.1770    24.9300 ca         1 RS6      -0.086000
     11 C17        -22.5780     4.2300    29.5340 ca         1 RS6      -0.041300
     12 C20        -23.4820     2.3570    31.4280 ca         1 RS6      -0.104000
     13 C21        -23.3970     3.7180    31.7720 ca         1 RS6      -0.042000
     14 C22        -22.9500     4.6680    30.8270 ca         1 RS6      -0.123600
     15 O2         -22.9790     6.5030    32.3640 o          1 RS6      -0.536000
     16 C23        -22.8460     6.1310    31.2050 c          1 RS6       0.577600
     17 C3         -20.9530     9.0850    30.2360 c          1 RS6       0.587100
     18 O          -20.7540    10.2900    30.1660 o          1 RS6      -0.620100
     19 N          -19.9430     8.1500    30.1070 ns         1 RS6      -0.496900
     20 C1         -18.5280     8.4110    29.8240 c3         1 RS6       0.124700
     21 C2         -17.8300     9.1330    30.9940 c3         1 RS6      -0.105600
     22 C          -18.3260     9.1360    28.4750 c3         1 RS6      -0.105600
     23 C19        -23.1150     1.9340    30.1420 ca         1 RS6       0.143000
     24 Cl         -23.2190     0.2310    29.7150 cl         1 RS6      -0.196000
     25 C18        -22.6630     2.8660    29.1960 ca         1 RS6      -0.102000
     26 O1         -19.8750     5.1230    29.5250 o          1 RS6      -0.566100
     27 N2         -19.9560     5.6730    27.2930 ns         1 RS6      -0.156000
     28 C16        -18.2680     6.5790    25.7480 ca         1 RS6      -0.038000
     29 C14        -18.8780     7.9120    23.7910 ca         1 RS6      -0.115000
     30 F          -17.1650     8.7630    22.3710 f          1 RS6      -0.173000
     31 C12        -16.5330     7.4700    24.2690 ca         1 RS6      -0.120000
     32 C11        -16.9040     6.7330    25.4110 ca         1 RS6      -0.069000
     33 C9         -17.5270     5.2820    27.6650 ca         1 RS6       0.339900
     34 H1         -22.6500     8.7310    31.4810 h1         1 RS6       0.082700
     35 H2         -23.0470     9.0650    29.7930 h1         1 RS6       0.082700
     36 H3         -22.2380     7.3780    28.0850 h1         1 RS6       0.055200
     37 H4         -23.7670     6.5920    28.5240 h1         1 RS6       0.055200
     38 H5         -22.3730     4.9750    27.4930 hc         1 RS6       0.077700
     39 H6         -14.8650     6.2460    25.9980 h4         1 RS6       0.028100
     40 H7         -20.3130     7.0860    25.1620 ha         1 RS6       0.112000
     41 H8         -23.8290     1.6310    32.1590 ha         1 RS6       0.139000
     42 H9         -23.6820     4.0320    32.7750 ha         1 RS6       0.147000
     43 H10        -20.2270     7.1820    30.2220 hn         1 RS6       0.331500
     44 H11        -18.0510     7.4270    29.7270 h1         1 RS6       0.048700
     45 H12        -16.7530     9.2160    30.8050 hc         1 RS6       0.044533
     46 H13        -18.2290    10.1430    31.1360 hc         1 RS6       0.044533
     47 H14        -17.9670     8.5730    31.9270 hc         1 RS6       0.044533
     48 H15        -17.2660     9.1370    28.1970 hc         1 RS6       0.044533
     49 H16        -18.8850     8.6340    27.6780 hc         1 RS6       0.044533
     50 H17        -18.6640    10.1770    28.5260 hc         1 RS6       0.044533
     51 H18        -22.3760     2.5270    28.2040 ha         1 RS6       0.131000
     52 H19        -20.6200     5.8380    26.5470 hn         1 RS6       0.155000
     53 H20        -19.6360     8.3720    23.1620 ha         1 RS6       0.138000
     54 H21        -15.4850     7.5920    24.0050 ha         1 RS6       0.141000
     55 H22        -17.7100     4.6800    28.5510 h4         1 RS6       0.041100
@<TRIPOS>BOND
     1     1     3 1   
     2     1     4 1   
     3     1    16 1   
     4     2     8 ar  
     5     2    33 ar  
     6     3    17 1   
     7     3    34 1   
     8     3    35 1   
     9     4     5 1   
    10     4    36 1   
    11     4    37 1   
    12     5     6 1   
    13     5    11 1   
    14     5    38 1   
    15     6    26 2   
    16     6    27 1   
    17     7    27 1   
    18     7    28 ar  
    19     7    33 ar  
    20     8    32 ar  
    21     8    39 1   
    22     9    29 ar  
    23     9    30 1   
    24     9    31 ar  
    25    10    28 ar  
    26    10    29 ar  
    27    10    40 1   
    28    11    14 ar  
    29    11    25 ar  
    30    12    13 ar  
    31    12    23 ar  
    32    12    41 1   
    33    13    14 ar  
    34    13    42 1   
    35    14    16 1   
    36    15    16 2   
    37    17    18 2   
    38    17    19 1   
    39    19    20 1   
    40    19    43 1   
    41    20    21 1   
    42    20    22 1   
    43    20    44 1   
    44    21    45 1   
    45    21    46 1   
    46    21    47 1   
    47    22    48 1   
    48    22    49 1   
    49    22    50 1   
    50    23    24 1   
    51    23    25 ar  
    52    25    51 1   
    53    27    52 1   
    54    28    32 ar  
    55    29    53 1   
    56    31    32 ar  
    57    31    54 1   
    58    33    55 1   
@<TRIPOS>SUBSTRUCTURE
     1 RS6         1 TEMP              0 ****  ****    0 ROOT
