@<TRIPOS>MOLECULE
RS6
   55    58     1     0     0
SMALL
abcg2


@<TRIPOS>ATOM
      1 N1         -22.3930     6.9510    29.6020 n          1 RS6      -0.422800
      2 N3         -16.3730     5.0550    27.1100 nb         1 RS6      -0.642000
      3 C4         -22.2500     8.3950    29.5810 c3         1 RS6       0.011000
      4 C5         -22.6890     6.2570    28.3460 c6         1 RS6       0.117000
      5 C6         -22.1020     4.8400    28.3500 c6         1 RS6      -0.115400
      6 C7         -20.5750     4.9430    28.3080 c          1 RS6       0.603100
      7 C8         -18.7220     5.4350    26.7870 ca         1 RS6      -0.087000
      8 C10        -16.1050     6.0950    26.3550 ca         1 RS6       0.356900
      9 C13        -17.7740     8.7720    24.4340 ca         1 RS6       0.168000
     10 C15        -19.4690     7.3980    25.4210 ca         1 RS6      -0.086000
     11 C17        -22.5640     4.1190    29.5840 ca         1 RS6      -0.041300
     12 C20        -23.3620     2.8330    31.9340 ca         1 RS6      -0.104000
     13 C21        -23.1320     4.2000    31.9300 ca         1 RS6      -0.042000
     14 C22        -22.7390     4.8510    30.7620 ca         1 RS6      -0.123600
     15 O2         -22.3380     6.9220    31.8670 o          1 RS6      -0.536000
     16 C23        -22.4780     6.3180    30.8030 c          1 RS6       0.577600
     17 C3         -20.8220     8.9500    29.6000 c          1 RS6       0.587100
     18 O          -20.6770    10.1730    29.6550 o          1 RS6      -0.620100
     19 N          -19.8280     8.0590    29.5320 ns         1 RS6      -0.496900
     20 C1         -18.3870     8.3550    29.5410 c3         1 RS6       0.124700
     21 C2         -17.9240     8.8220    30.9210 c3         1 RS6      -0.105600
     22 C          -17.9800     9.3240    28.4330 c3         1 RS6      -0.105600
     23 C19        -23.1810     2.1220    30.7530 ca         1 RS6       0.143000
     24 CL         -23.4660     0.3990    30.7430 cl         1 RS6      -0.196000
     25 C18        -22.7820     2.7470    29.5810 ca         1 RS6      -0.102000
     26 O1         -19.8980     5.0070    29.3270 o          1 RS6      -0.566100
     27 N2         -20.0580     5.0590    27.0590 ns         1 RS6      -0.156000
     28 C16        -18.4640     6.5720    25.9770 ca         1 RS6      -0.038000
     29 C14        -19.1300     8.4850    24.6560 ca         1 RS6      -0.115000
     30 F          -17.4770     9.8530    23.6750 f          1 RS6      -0.173000
     31 C12        -16.7630     8.0210    24.9560 ca         1 RS6      -0.120000
     32 C11        -17.0980     6.9000    25.7480 ca         1 RS6      -0.069000
     33 C9         -17.6720     4.7270    27.3150 ca         1 RS6       0.339900
     34 H1         -22.7620     8.8250    30.4410 h1         1 RS6       0.082700
     35 H2         -22.7270     8.7820    28.6800 h1         1 RS6       0.082700
     36 H3         -22.2630     6.8400    27.5320 h1         1 RS6       0.055200
     37 H4         -23.7700     6.1950    28.1910 h1         1 RS6       0.055200
     38 H5         -22.4570     4.3250    27.4570 hc         1 RS6       0.077700
     39 H6         -15.0600     6.3420    26.1950 h4         1 RS6       0.028100
     40 H7         -20.5130     7.1890    25.6090 ha         1 RS6       0.112000
     41 H8         -23.6740     2.3250    32.8360 ha         1 RS6       0.139000
     42 H9         -23.2590     4.7740    32.8370 ha         1 RS6       0.147000
     43 H10        -20.0710     7.0800    29.5730 hn         1 RS6       0.331500
     44 H11        -17.9210     7.3910    29.3290 h1         1 RS6       0.048700
     45 H12        -16.8400     8.9510    30.9250 hc         1 RS6       0.044533
     46 H13        -18.3850     9.7750    31.1800 hc         1 RS6       0.044533
     47 H14        -18.1870     8.0880    31.6840 hc         1 RS6       0.044533
     48 H15        -16.8920     9.3490    28.3590 hc         1 RS6       0.044533
     49 H16        -18.3810     9.0030    27.4730 hc         1 RS6       0.044533
     50 H17        -18.3400    10.3310    28.6380 hc         1 RS6       0.044533
     51 H18        -22.6440     2.1740    28.6740 ha         1 RS6       0.131000
     52 H19        -20.7050     5.0430    26.2840 hn         1 RS6       0.155000
     53 H20        -19.8850     9.1320    24.2310 ha         1 RS6       0.138000
     54 H21        -15.7280     8.2800    24.7770 ha         1 RS6       0.141000
     55 H22        -17.8610     3.8590    27.9320 h4         1 RS6       0.041100
@<TRIPOS>BOND
     1     1     3 1   
     2     1     4 1   
     3     1    16 1   
     4     2     8 ar  
     5     2    33 ar  
     6     3    17 1   
     7     3    34 1   
     8     3    35 1   
     9     4     5 1   
    10     4    36 1   
    11     4    37 1   
    12     5     6 1   
    13     5    11 1   
    14     5    38 1   
    15     6    26 2   
    16     6    27 1   
    17     7    27 1   
    18     7    28 ar  
    19     7    33 ar  
    20     8    32 ar  
    21     8    39 1   
    22     9    29 ar  
    23     9    30 1   
    24     9    31 ar  
    25    10    28 ar  
    26    10    29 ar  
    27    10    40 1   
    28    11    14 ar  
    29    11    25 ar  
    30    12    13 ar  
    31    12    23 ar  
    32    12    41 1   
    33    13    14 ar  
    34    13    42 1   
    35    14    16 1   
    36    15    16 2   
    37    17    18 2   
    38    17    19 1   
    39    19    20 1   
    40    19    43 1   
    41    20    21 1   
    42    20    22 1   
    43    20    44 1   
    44    21    45 1   
    45    21    46 1   
    46    21    47 1   
    47    22    48 1   
    48    22    49 1   
    49    22    50 1   
    50    23    24 1   
    51    23    25 ar  
    52    25    51 1   
    53    27    52 1   
    54    28    32 ar  
    55    29    53 1   
    56    31    32 ar  
    57    31    54 1   
    58    33    55 1   
@<TRIPOS>SUBSTRUCTURE
     1 RS6         1 TEMP              0 ****  ****    0 ROOT
