@<TRIPOS>MOLECULE
RS7
   38    38     1     0     0
SMALL
bcc


@<TRIPOS>ATOM
      1 C1          -4.9470   -11.3290     0.7940 c          1 RS7       0.905800
      2 O19         -5.6710   -10.3290     0.9680 o          1 RS7      -0.827300
      3 O18         -5.3070   -12.4550     0.3910 o          1 RS7      -0.827300
      4 C2          -3.4720   -11.1910     1.0980 ce         1 RS7      -0.161200
      5 C3          -2.9260   -10.0640     1.5590 cf         1 RS7      -0.193200
      6 C4          -1.5160    -9.8540     1.8900 ca         1 RS7       0.030200
      7 C5          -0.6120   -10.9160     1.9840 ca         1 RS7      -0.145000
      8 C6           0.7210   -10.7130     2.2870 ca         1 RS7      -0.125000
      9 C7           1.1940    -9.4250     2.5130 ca         1 RS7      -0.169000
     10 C8           0.3210    -8.3570     2.4380 ca         1 RS7      -0.112000
     11 C9          -1.0300    -8.5530     2.1310 ca         1 RS7       0.007000
     12 C10         -1.8850    -7.4130     2.0700 cg         1 RS7      -0.086000
     13 C11         -2.5820    -6.4290     2.0320 c1         1 RS7      -0.152100
     14 C12         -3.3930    -5.2220     1.9920 c3         1 RS7       0.018700
     15 C13         -2.5510    -3.9450     2.0280 c3         1 RS7      -0.074400
     16 C14         -3.4080    -2.6870     2.0100 c3         1 RS7      -0.076400
     17 C15         -2.5810    -1.4090     2.0420 c3         1 RS7      -0.075400
     18 C16         -3.4270    -0.1420     2.0360 c3         1 RS7      -0.075400
     19 C17         -2.5860     1.1260     2.0700 c3         1 RS7      -0.087100
     20 H21         -2.8610   -12.0710     0.9160 ha         1 RS7       0.092000
     21 H31         -3.5840    -9.2120     1.6960 ha         1 RS7       0.152000
     22 H5          -0.9620   -11.9280     1.8270 ha         1 RS7       0.137000
     23 H6           1.3920   -11.5580     2.3550 ha         1 RS7       0.115000
     24 H7           2.2350    -9.2570     2.7520 ha         1 RS7       0.113000
     25 H8           0.6780    -7.3520     2.6180 ha         1 RS7       0.118000
     26 H121        -4.0900    -5.2300     2.8360 hc         1 RS7       0.056700
     27 H122        -4.0140    -5.2350     1.0910 hc         1 RS7       0.056700
     28 H131        -1.9260    -3.9530     2.9240 hc         1 RS7       0.041200
     29 H132        -1.8680    -3.9420     1.1740 hc         1 RS7       0.041200
     30 H141        -4.0910    -2.7000     2.8660 hc         1 RS7       0.037700
     31 H142        -4.0430    -2.6890     1.1170 hc         1 RS7       0.037700
     32 H151        -1.9410    -1.4130     2.9310 hc         1 RS7       0.036200
     33 H152        -1.9010    -1.3940     1.1830 hc         1 RS7       0.036200
     34 H161        -4.0650    -0.1360     1.1470 hc         1 RS7       0.036200
     35 H162        -4.1060    -0.1560     2.8940 hc         1 RS7       0.036200
     36 H171        -1.9210     1.1810     1.2070 hc         1 RS7       0.027700
     37 H172        -1.9630     1.1610     2.9660 hc         1 RS7       0.027700
     38 H173        -3.2050     2.0230     2.0660 hc         1 RS7       0.027700
@<TRIPOS>BOND
     1     1     2 1   
     2     1     3 1   
     3     1     4 1   
     4     4     5 2   
     5     4    20 1   
     6     5     6 1   
     7     5    21 1   
     8     6     7 ar  
     9     6    11 ar  
    10     7     8 ar  
    11     7    22 1   
    12     8     9 ar  
    13     8    23 1   
    14     9    10 ar  
    15     9    24 1   
    16    10    11 ar  
    17    10    25 1   
    18    11    12 1   
    19    12    13 3   
    20    13    14 1   
    21    14    15 1   
    22    14    26 1   
    23    14    27 1   
    24    15    16 1   
    25    15    28 1   
    26    15    29 1   
    27    16    17 1   
    28    16    30 1   
    29    16    31 1   
    30    17    18 1   
    31    17    32 1   
    32    17    33 1   
    33    18    19 1   
    34    18    34 1   
    35    18    35 1   
    36    19    36 1   
    37    19    37 1   
    38    19    38 1   
@<TRIPOS>SUBSTRUCTURE
     1 RS7         1 TEMP              0 ****  ****    0 ROOT
