@<TRIPOS>MOLECULE
RS7
   38    38     1     0     0
SMALL
No Charge or Current Charge


@<TRIPOS>ATOM
      1 C1          -5.0260   -11.5390     1.0260 c          1 RS7       0.695200
      2 O19         -5.7410   -10.5520     0.9370 o          1 RS7      -0.722000
      3 O18         -5.4330   -12.6800     0.8760 o          1 RS7      -0.722000
      4 C2          -3.5710   -11.3570     1.3340 ce         1 RS7      -0.211200
      5 C3          -2.9320   -10.1600     1.5340 cf         1 RS7      -0.243200
      6 C4          -1.5030    -9.8820     1.8420 ca         1 RS7       0.030200
      7 C5          -0.5900   -10.9560     1.9660 ca         1 RS7      -0.127000
      8 C6           0.7650   -10.7290     2.2560 ca         1 RS7      -0.107000
      9 C7           1.2360    -9.4220     2.4290 ca         1 RS7      -0.151000
     10 C8           0.3510    -8.3410     2.3120 ca         1 RS7      -0.094000
     11 C9          -1.0110    -8.5570     2.0210 ca         1 RS7       0.007000
     12 C10         -1.8580    -7.3990     1.9160 cg         1 RS7      -0.086000
     13 C11         -2.5630    -6.4140     1.8300 c1         1 RS7      -0.152100
     14 C12         -3.3780    -5.1950     1.7360 c3         1 RS7       0.018700
     15 C13         -2.5530    -3.9130     1.9860 c3         1 RS7      -0.074400
     16 C14         -3.3970    -2.6230     1.8900 c3         1 RS7      -0.076400
     17 C15         -2.5720    -1.3410     2.1400 c3         1 RS7      -0.075400
     18 C16         -3.4160    -0.0510     2.0440 c3         1 RS7      -0.075400
     19 C17         -2.5930     1.2280     2.2930 c3         1 RS7      -0.087100
     20 H21         -3.0130   -12.2870     1.3940 ha         1 RS7       0.142000
     21 H31         -3.5650    -9.2750     1.4560 ha         1 RS7       0.202000
     22 H5          -0.9200   -11.9820     1.8380 ha         1 RS7       0.119000
     23 H6           1.4490   -11.5700     2.3460 ha         1 RS7       0.097000
     24 H7           2.2860    -9.2450     2.6540 ha         1 RS7       0.095000
     25 H8           0.7260    -7.3290     2.4480 ha         1 RS7       0.100000
     26 H121        -4.1940    -5.2570     2.4660 hc         1 RS7       0.056700
     27 H122        -3.8370    -5.1510     0.7410 hc         1 RS7       0.056700
     28 H131        -2.0920    -3.9670     2.9800 hc         1 RS7       0.041200
     29 H132        -1.7340    -3.8610     1.2560 hc         1 RS7       0.041200
     30 H141        -4.2150    -2.6720     2.6200 hc         1 RS7       0.037700
     31 H142        -3.8570    -2.5660     0.8960 hc         1 RS7       0.037700
     32 H151        -2.1110    -1.3970     3.1340 hc         1 RS7       0.036200
     33 H152        -1.7540    -1.2910     1.4100 hc         1 RS7       0.036200
     34 H161        -3.8760     0.0100     1.0510 hc         1 RS7       0.036200
     35 H162        -4.2330    -0.0960     2.7740 hc         1 RS7       0.036200
     36 H171        -1.7870     1.3210     1.5560 hc         1 RS7       0.027700
     37 H172        -2.1470     1.2140     3.2950 hc         1 RS7       0.027700
     38 H173        -3.2330     2.1150     2.2150 hc         1 RS7       0.027700
@<TRIPOS>BOND
     1     1     2 1   
     2     1     3 1   
     3     1     4 1   
     4     4     5 2   
     5     4    20 1   
     6     5     6 1   
     7     5    21 1   
     8     6     7 ar  
     9     6    11 ar  
    10     7     8 ar  
    11     7    22 1   
    12     8     9 ar  
    13     8    23 1   
    14     9    10 ar  
    15     9    24 1   
    16    10    11 ar  
    17    10    25 1   
    18    11    12 1   
    19    12    13 3   
    20    13    14 1   
    21    14    15 1   
    22    14    26 1   
    23    14    27 1   
    24    15    16 1   
    25    15    28 1   
    26    15    29 1   
    27    16    17 1   
    28    16    30 1   
    29    16    31 1   
    30    17    18 1   
    31    17    32 1   
    32    17    33 1   
    33    18    19 1   
    34    18    34 1   
    35    18    35 1   
    36    19    36 1   
    37    19    37 1   
    38    19    38 1   
@<TRIPOS>SUBSTRUCTURE
     1 RS7         1 TEMP              0 ****  ****    0 ROOT
