@<TRIPOS>MOLECULE
RS8
   46    48     1     0     0
SMALL
bcc


@<TRIPOS>ATOM
      1 C1          -5.6570     1.4860     1.5360 cc         1 RS8       0.924100
      2 N1          -5.8240     2.5160     2.3570 nv         1 RS8      -0.947800
      3 O1          -7.5140    -0.9920     0.0290 o          1 RS8      -0.520100
      4 C2          -6.5640    -0.3020     0.3570 c          1 RS8       0.640000
      5 N2          -6.6910     0.7540     1.1980 nd         1 RS8      -0.808100
      6 C3          -5.2010    -0.5930    -0.1600 ca         1 RS8       0.186500
      7 N3          -4.3910     1.2580     1.0910 na         1 RS8      -0.841900
      8 O2          -1.0910    -2.1580    -2.2840 o          1 RS8      -0.617100
      9 C4          -4.1380     0.2200     0.2440 ca         1 RS8       0.553900
     10 N4          -2.9010     0.0150    -0.1650 nb         1 RS8      -0.679000
     11 C5          -2.7080    -0.9990    -0.9910 ca         1 RS8       0.302500
     12 N5          -4.9950    -1.6030    -0.9870 nb         1 RS8      -0.566000
     13 C6          -3.7610    -1.8140    -1.4100 ca         1 RS8       0.297900
     14 C7          -1.3120    -1.2660    -1.4770 c          1 RS8       0.568600
     15 N6          -0.3820    -0.4690    -0.9560 ns         1 RS8      -0.519900
     16 C8           1.0080    -0.5850    -1.2890 c3         1 RS8       0.002000
     17 C9           1.8170     0.3700    -0.4220 c          1 RS8       0.665100
     18 O3           1.2840     1.0600     0.4350 o          1 RS8      -0.631100
     19 N7           3.1300     0.3440    -0.6600 ns         1 RS8      -0.510900
     20 C10          4.0490     1.2890    -0.0720 c3         1 RS8      -0.042300
     21 C18          3.9800     2.6920    -0.7360 c          1 RS8       0.926600
     22 O5           3.2440     2.8260    -1.7260 o          1 RS8      -0.821800
     23 C11          5.4720     0.7230    -0.1340 c3         1 RS8      -0.040100
     24 C12          5.6130    -0.5730     0.6140 ca         1 RS8      -0.049300
     25 C13          5.7250    -0.5770     2.0030 ca         1 RS8      -0.130000
     26 C17          5.6010    -1.7960    -0.0510 ca         1 RS8      -0.130000
     27 C14          5.8180    -1.7690     2.7080 ca         1 RS8      -0.134500
     28 C16          5.6940    -2.9930     0.6490 ca         1 RS8      -0.134500
     29 C15          5.8020    -2.9830     2.0330 ca         1 RS8      -0.150000
     30 O4           4.6940     3.5580    -0.1940 o          1 RS8      -0.821800
     31 H16         -6.7390     2.6990     2.7290 hn         1 RS8       0.457800
     32 H17         -5.0630     3.1000     2.6590 hn         1 RS8       0.457800
     33 H15         -3.6210     1.8510     1.3730 hn         1 RS8       0.467800
     34 H14         -3.5940    -2.6390    -2.0880 h4         1 RS8       0.060100
     35 H13         -0.6470     0.2360    -0.2810 hn         1 RS8       0.366500
     36 H11          1.1830    -0.3550    -2.3440 h1         1 RS8       0.064200
     37 H12          1.3640    -1.6070    -1.1260 h1         1 RS8       0.064200
     38 H10          3.4430    -0.1570    -1.4780 hn         1 RS8       0.296500
     39 H2           3.7800     1.4080     0.9810 h1         1 RS8       0.066700
     40 H3           5.7630     0.5830    -1.1800 hc         1 RS8       0.060700
     41 H4           6.1440     1.4730     0.2810 hc         1 RS8       0.060700
     42 H9           5.7450     0.3630     2.5420 ha         1 RS8       0.129500
     43 H5           5.5270    -1.8160    -1.1320 ha         1 RS8       0.129500
     44 H8           5.9070    -1.7500     3.7870 ha         1 RS8       0.116500
     45 H6           5.6830    -3.9330     0.1110 ha         1 RS8       0.116500
     46 H7           5.8770    -3.9130     2.5820 ha         1 RS8       0.115000
@<TRIPOS>BOND
     1     1     2 1   
     2     1     5 2   
     3     1     7 1   
     4     2    31 1   
     5     2    32 1   
     6     3     4 2   
     7     4     5 1   
     8     4     6 1   
     9     6     9 ar  
    10     6    12 ar  
    11     7     9 1   
    12     7    33 1   
    13     8    14 2   
    14     9    10 ar  
    15    10    11 ar  
    16    11    13 ar  
    17    11    14 1   
    18    12    13 ar  
    19    13    34 1   
    20    14    15 1   
    21    15    16 1   
    22    15    35 1   
    23    16    17 1   
    24    16    36 1   
    25    16    37 1   
    26    17    18 2   
    27    17    19 1   
    28    19    20 1   
    29    19    38 1   
    30    20    21 1   
    31    20    23 1   
    32    20    39 1   
    33    21    22 1   
    34    21    30 1   
    35    23    24 1   
    36    23    40 1   
    37    23    41 1   
    38    24    25 ar  
    39    24    26 ar  
    40    25    27 ar  
    41    25    42 1   
    42    26    28 ar  
    43    26    43 1   
    44    27    29 ar  
    45    27    44 1   
    46    28    29 ar  
    47    28    45 1   
    48    29    46 1   
@<TRIPOS>SUBSTRUCTURE
     1 RS8         1 TEMP              0 ****  ****    0 ROOT
