@<TRIPOS>MOLECULE
RS8
   46    48     1     0     0
SMALL
No Charge or Current Charge


@<TRIPOS>ATOM
      1 C1          -4.8530     0.4110     2.4640 cc         1 RS8       0.924100
      2 N1          -4.8380     1.0500     3.5830 nv         1 RS8      -1.058200
      3 O1          -7.0530    -1.3870     0.5370 o          1 RS8      -0.520100
      4 C2          -5.9920    -0.8640     0.8520 c          1 RS8       0.640000
      5 N2          -5.9260    -0.1670     2.0600 nd         1 RS8      -0.808100
      6 C3          -4.7510    -0.9300     0.0160 ca         1 RS8       0.186500
      7 N3          -3.7260     0.4150     1.7580 na         1 RS8      -0.897100
      8 O2          -0.9270    -1.4540    -3.1380 o          1 RS8      -0.617100
      9 C4          -3.6410    -0.2450     0.5650 ca         1 RS8       0.553900
     10 N4          -2.4590    -0.2170    -0.0800 nb         1 RS8      -0.679000
     11 C5          -2.3860    -0.8820    -1.2830 ca         1 RS8       0.302500
     12 N5          -4.7070    -1.6010    -1.1820 nb         1 RS8      -0.566000
     13 C6          -3.5070    -1.5650    -1.8210 ca         1 RS8       0.297900
     14 C7          -1.0750    -0.8880    -2.0590 c          1 RS8       0.501600
     15 N6          -0.0320    -0.2030    -1.4660 ns         1 RS8      -0.452900
     16 C8           1.3310    -0.0740    -2.0250 c3         1 RS8       0.002000
     17 C9           2.2600     0.7400    -1.0960 c          1 RS8       0.598100
     18 O3           1.8810     1.2310    -0.0390 o          1 RS8      -0.631100
     19 N7           3.5520     0.8800    -1.5610 ns         1 RS8      -0.443900
     20 C10          4.6660     1.5290    -0.8240 c3         1 RS8      -0.042300
     21 C18          5.5200     2.4090    -1.7840 c          1 RS8       0.716000
     22 O5           5.9210     1.9130    -2.8290 o          1 RS8      -0.716500
     23 C11          5.5450     0.4890    -0.0830 c3         1 RS8      -0.040100
     24 C12          4.7570    -0.3970     0.8760 ca         1 RS8      -0.049300
     25 C13          4.4090     0.0770     2.1560 ca         1 RS8      -0.112000
     26 C17          4.3660    -1.6950     0.4900 ca         1 RS8      -0.112000
     27 C14          3.6790    -0.7370     3.0400 ca         1 RS8      -0.116500
     28 C16          3.6340    -2.5080     1.3730 ca         1 RS8      -0.116500
     29 C15          3.2900    -2.0290     2.6480 ca         1 RS8      -0.132000
     30 O4           5.6840     3.5860    -1.4940 o          1 RS8      -0.716500
     31 H16         -5.6860     0.8740     4.1030 hn         1 RS8       0.513000
     32 H17         -3.9960     0.9260     4.1240 hn         1 RS8       0.513000
     33 H15         -2.9410     0.9490     2.0820 hn         1 RS8       0.523000
     34 H14         -3.4460    -2.0900    -2.7740 h4         1 RS8       0.060100
     35 H13         -0.2390     0.2370    -0.5710 hn         1 RS8       0.366500
     36 H11          1.2840     0.4300    -2.9990 h1         1 RS8       0.064200
     37 H12          1.7670    -1.0710    -2.1630 h1         1 RS8       0.064200
     38 H10          3.7600     0.4680    -2.4640 hn         1 RS8       0.296500
     39 H2           4.2370     2.2060    -0.0750 h1         1 RS8       0.066700
     40 H3           6.0660    -0.1310    -0.8230 hc         1 RS8       0.060700
     41 H4           6.3310     1.0220     0.4670 hc         1 RS8       0.060700
     42 H9           4.7030     1.0780     2.4650 ha         1 RS8       0.111500
     43 H5           4.6250    -2.0730    -0.4970 ha         1 RS8       0.111500
     44 H8           3.4120    -0.3650     4.0260 ha         1 RS8       0.098500
     45 H6           3.3330    -3.5080     1.0680 ha         1 RS8       0.098500
     46 H7           2.7240    -2.6580     3.3310 ha         1 RS8       0.097000
@<TRIPOS>BOND
     1     1     2 1   
     2     1     5 2   
     3     1     7 1   
     4     2    31 1   
     5     2    32 1   
     6     3     4 2   
     7     4     5 1   
     8     4     6 1   
     9     6     9 ar  
    10     6    12 ar  
    11     7     9 1   
    12     7    33 1   
    13     8    14 2   
    14     9    10 ar  
    15    10    11 ar  
    16    11    13 ar  
    17    11    14 1   
    18    12    13 ar  
    19    13    34 1   
    20    14    15 1   
    21    15    16 1   
    22    15    35 1   
    23    16    17 1   
    24    16    36 1   
    25    16    37 1   
    26    17    18 2   
    27    17    19 1   
    28    19    20 1   
    29    19    38 1   
    30    20    21 1   
    31    20    23 1   
    32    20    39 1   
    33    21    22 1   
    34    21    30 1   
    35    23    24 1   
    36    23    40 1   
    37    23    41 1   
    38    24    25 ar  
    39    24    26 ar  
    40    25    27 ar  
    41    25    42 1   
    42    26    28 ar  
    43    26    43 1   
    44    27    29 ar  
    45    27    44 1   
    46    28    29 ar  
    47    28    45 1   
    48    29    46 1   
@<TRIPOS>SUBSTRUCTURE
     1 RS8         1 TEMP              0 ****  ****    0 ROOT
