@<TRIPOS>MOLECULE
RS9
   43    46     1     0     0
SMALL
No Charge or Current Charge


@<TRIPOS>ATOM
      1 C18        -42.8840   -28.8040     0.9260 c5         1 RS9      -0.025100
      2 C15        -44.2150   -30.8930     1.6600 c          1 RS9       0.718000
      3 C14        -44.1080   -29.3520     1.7640 c5         1 RS9      -0.194700
      4 C13        -45.3900   -28.6630     1.1490 c5         1 RS9       0.155000
      5 C10        -48.2320   -29.2030     3.6480 ca         1 RS9      -0.158600
      6 C20        -42.6740   -26.3340     0.0800 ca         1 RS9       0.129100
      7 C19        -43.4100   -27.4420     0.5390 ca         1 RS9      -0.149300
      8 C03        -51.6720   -30.0670     6.5020 cc         1 RS9       0.389800
      9 C05        -50.1500   -29.9040     4.9730 ca         1 RS9       0.052400
     10 C06        -49.8850   -28.9170     5.8740 ca         1 RS9      -0.063200
     11 C08        -48.8150   -28.0310     5.7390 ca         1 RS9      -0.141000
     12 C09        -47.9810   -28.1790     4.6110 ca         1 RS9      -0.065000
     13 C22        -43.3550   -25.1470    -0.2440 ca         1 RS9      -0.156000
     14 C23        -44.7570   -25.0740    -0.1150 ca         1 RS9      -0.102000
     15 C24        -45.4810   -26.1930     0.3380 ca         1 RS9      -0.135000
     16 C25        -44.7860   -27.3700     0.6630 ca         1 RS9      -0.063300
     17 C27        -49.3370   -30.0750     3.8430 ca         1 RS9       0.019000
     18 N04        -51.2710   -30.6420     5.3470 nd         1 RS9      -0.534100
     19 N07        -50.8340   -29.0060     6.8430 na         1 RS9      -0.322600
     20 N12        -46.3040   -28.5150     2.2880 ns         1 RS9      -0.479900
     21 O01        -53.0740   -29.7110     8.5180 oh         1 RS9      -0.639000
     22 O16        -44.1310   -31.5530     2.6840 o          1 RS9      -0.722500
     23 O17        -44.3490   -31.4160     0.5630 o          1 RS9      -0.722500
     24 O21        -41.3200   -26.4000    -0.0580 oh         1 RS9      -0.559100
     25 H182       -42.6750   -29.4120     0.0370 hc         1 RS9       0.056700
     26 H181       -41.9670   -28.7670     1.5260 hc         1 RS9       0.056700
     27 H141       -43.9730   -29.0710     2.8160 hc         1 RS9       0.037700
     28 H131       -45.8050   -29.2230     0.2980 h1         1 RS9       0.115700
     29 H022       -52.7300   -31.5600     7.6050 h1         1 RS9       0.031700
     30 H021       -53.7640   -30.4580     6.6900 h1         1 RS9       0.031700
     31 H081       -48.6290   -27.2530     6.4760 ha         1 RS9       0.110000
     32 H091       -47.1460   -27.4920     4.5000 ha         1 RS9       0.114000
     33 H221       -42.7980   -24.2830    -0.5980 ha         1 RS9       0.110000
     34 H231       -45.2800   -24.1550    -0.3700 ha         1 RS9       0.097000
     35 H241       -46.5630   -26.1460     0.4350 ha         1 RS9       0.112000
     36 H271       -49.5640   -30.8680     3.1340 ha         1 RS9       0.161000
     37 H071       -50.9350   -28.4250     7.6650 hn         1 RS9       0.348000
     38 H121       -46.1870   -27.8080     3.0000 hn         1 RS9       0.299500
     39 H011       -53.8650   -30.0740     8.9750 ho         1 RS9       0.439000
     40 H211       -41.0330   -27.3030     0.1910 ho         1 RS9       0.467000
     41 C11        -47.3610   -29.3940     2.4260 c          1 RS9       0.614700
     42 C02        -52.8720   -30.5080     7.3290 c3         1 RS9       0.156300
     43 O26        -47.5920   -30.2740     1.6070 o          1 RS9      -0.588100
@<TRIPOS>BOND
     1     1     3 1   
     2     1     7 1   
     3     1    25 1   
     4     1    26 1   
     5     2     3 1   
     6     2    22 1   
     7     2    23 1   
     8     3     4 1   
     9     3    27 1   
    10     4    16 1   
    11     4    20 1   
    12     4    28 1   
    13     5    12 ar  
    14     5    17 ar  
    15     5    41 1   
    16     6     7 ar  
    17     6    13 ar  
    18     6    24 1   
    19     7    16 ar  
    20     8    18 2   
    21     8    19 1   
    22     8    42 1   
    23     9    10 ar  
    24     9    17 ar  
    25     9    18 1   
    26    10    11 ar  
    27    10    19 1   
    28    11    12 ar  
    29    11    31 1   
    30    12    32 1   
    31    13    14 ar  
    32    13    33 1   
    33    14    15 ar  
    34    14    34 1   
    35    15    16 ar  
    36    15    35 1   
    37    17    36 1   
    38    19    37 1   
    39    20    38 1   
    40    20    41 1   
    41    21    39 1   
    42    21    42 1   
    43    24    40 1   
    44    29    42 1   
    45    30    42 1   
    46    41    43 2   
@<TRIPOS>SUBSTRUCTURE
     1 RS9         1 TEMP              0 ****  ****    0 ROOT
