@<TRIPOS>MOLECULE
RS9
   43    46     1     0     0
SMALL
abcg2


@<TRIPOS>ATOM
      1 C18        -42.8500   -28.8750     0.9630 c5         1 RS9      -0.025100
      2 C15        -44.1060   -31.0380     1.7200 c          1 RS9       0.718000
      3 C14        -43.9660   -29.5070     1.8210 c5         1 RS9      -0.194700
      4 C13        -45.2660   -28.7850     1.3630 c5         1 RS9       0.155000
      5 C10        -48.3530   -29.0660     3.5540 ca         1 RS9      -0.158600
      6 C20        -42.7420   -26.4020     0.1000 ca         1 RS9       0.129100
      7 C19        -43.4010   -27.5150     0.6140 ca         1 RS9      -0.149300
      8 C03        -51.6040   -29.8880     6.5400 cc         1 RS9       0.389800
      9 C05        -50.1030   -29.8120     5.0030 ca         1 RS9       0.052400
     10 C06        -50.0980   -28.5440     5.6280 ca         1 RS9      -0.063200
     11 C08        -49.2410   -27.5240     5.2300 ca         1 RS9      -0.141000
     12 C09        -48.3690   -27.8060     4.1910 ca         1 RS9      -0.065000
     13 C22        -43.4630   -25.2360    -0.1590 ca         1 RS9      -0.156000
     14 C23        -44.8320   -25.1920     0.0870 ca         1 RS9      -0.102000
     15 C24        -45.5060   -26.3040     0.5910 ca         1 RS9      -0.135000
     16 C25        -44.7710   -27.4520     0.8480 ca         1 RS9      -0.063300
     17 C27        -49.2290   -30.0720     3.9520 ca         1 RS9       0.019000
     18 N04        -51.0590   -30.6220     5.5960 nd         1 RS9      -0.534100
     19 N07        -51.0650   -28.6300     6.6000 na         1 RS9      -0.322600
     20 N12        -46.2690   -28.6650     2.3970 ns         1 RS9      -0.479900
     21 O01        -52.1980   -31.3910     8.2810 oh         1 RS9      -0.639000
     22 O16        -44.3550   -31.6530     2.7890 o          1 RS9      -0.722500
     23 O17        -44.0010   -31.5500     0.5770 o          1 RS9      -0.722500
     24 O21        -41.3980   -26.3940    -0.1600 oh         1 RS9      -0.559100
     25 H182       -42.6920   -29.4740     0.0630 hc         1 RS9       0.056700
     26 H181       -41.9000   -28.8320     1.5010 hc         1 RS9       0.056700
     27 H141       -43.8040   -29.2400     2.8670 hc         1 RS9       0.037700
     28 H131       -45.7270   -29.3470     0.5490 h1         1 RS9       0.115700
     29 H022       -53.5490   -30.6550     6.8750 h1         1 RS9       0.031700
     30 H021       -53.0020   -29.4740     8.0800 h1         1 RS9       0.031700
     31 H081       -49.2550   -26.5500     5.7010 ha         1 RS9       0.110000
     32 H091       -47.7090   -27.0220     3.8480 ha         1 RS9       0.114000
     33 H221       -42.9420   -24.3710    -0.5490 ha         1 RS9       0.110000
     34 H231       -45.3760   -24.2770    -0.1170 ha         1 RS9       0.097000
     35 H241       -46.5700   -26.2690     0.7860 ha         1 RS9       0.112000
     36 H271       -49.2210   -31.0320     3.4530 ha         1 RS9       0.161000
     37 H071       -51.3290   -27.9090     7.2540 hn         1 RS9       0.348000
     38 H121       -46.0460   -28.0750     3.1830 hn         1 RS9       0.299500
     39 H011       -52.9490   -31.7690     8.7550 ho         1 RS9       0.439000
     40 H211       -41.0130   -27.2530     0.0600 ho         1 RS9       0.467000
     41 C11        -47.4250   -29.3640     2.4180 c          1 RS9       0.614700
     42 C02        -52.6900   -30.3250     7.4660 c3         1 RS9       0.156300
     43 O26        -47.7120   -30.2030     1.5590 o          1 RS9      -0.588100
@<TRIPOS>BOND
     1     1     3 1   
     2     1     7 1   
     3     1    25 1   
     4     1    26 1   
     5     2     3 1   
     6     2    22 1   
     7     2    23 1   
     8     3     4 1   
     9     3    27 1   
    10     4    16 1   
    11     4    20 1   
    12     4    28 1   
    13     5    12 ar  
    14     5    17 ar  
    15     5    41 1   
    16     6     7 ar  
    17     6    13 ar  
    18     6    24 1   
    19     7    16 ar  
    20     8    18 2   
    21     8    19 1   
    22     8    42 1   
    23     9    10 ar  
    24     9    17 ar  
    25     9    18 1   
    26    10    11 ar  
    27    10    19 1   
    28    11    12 ar  
    29    11    31 1   
    30    12    32 1   
    31    13    14 ar  
    32    13    33 1   
    33    14    15 ar  
    34    14    34 1   
    35    15    16 ar  
    36    15    35 1   
    37    17    36 1   
    38    19    37 1   
    39    20    38 1   
    40    20    41 1   
    41    21    39 1   
    42    21    42 1   
    43    24    40 1   
    44    29    42 1   
    45    30    42 1   
    46    41    43 2   
@<TRIPOS>SUBSTRUCTURE
     1 RS9         1 TEMP              0 ****  ****    0 ROOT
