@<TRIPOS>MOLECULE
RSA
   26    27     1     0     0
SMALL
abcg2


@<TRIPOS>ATOM
      1 C13         -0.8050     1.1430    -4.4090 c1         1 RSA      -0.237000
      2 C12         -0.6760     0.4560    -3.4310 c1         1 RSA      -0.145100
      3 C11         -0.5090    -0.3920    -2.2550 c3         1 RSA       0.239900
      4 N10          0.7220    -0.0740    -1.5530 n7         1 RSA      -0.847400
      5 C9           0.9620    -0.9290    -0.3920 c5         1 RSA       0.211800
      6 C1           2.3230    -0.5640     0.2170 c5         1 RSA      -0.075400
      7 C2           2.0370     0.6350     1.1320 c5         1 RSA      -0.028100
      8 C3           0.6250     0.3690     1.5750 ca         1 RSA      -0.066300
      9 C8           0.0180    -0.5570     0.7270 ca         1 RSA      -0.089300
     10 C7          -1.2740    -0.9950     0.9690 ca         1 RSA      -0.094000
     11 C4          -0.0670     0.8860     2.6570 ca         1 RSA      -0.101000
     12 C5          -1.3720     0.4600     2.8920 ca         1 RSA      -0.105000
     13 C6          -1.9700    -0.4780     2.0590 ca         1 RSA      -0.116000
     14 H13         -0.9260     1.7540    -5.2740 ha         1 RSA       0.254000
     15 H111        -0.5700    -1.4460    -2.5680 h1         1 RSA       0.048200
     16 H112        -1.3580    -0.2270    -1.5860 h1         1 RSA       0.048200
     17 H10          1.4960    -0.1920    -2.1960 hn         1 RSA       0.412000
     18 H9           0.8970    -1.9970    -0.6500 h1         1 RSA       0.035700
     19 H11          2.6770    -1.4050     0.8170 hc         1 RSA       0.047700
     20 H12          3.0820    -0.3660    -0.5420 hc         1 RSA       0.047700
     21 H21          2.7380     0.7080     1.9650 hc         1 RSA       0.058200
     22 H22          2.0940     1.5770     0.5790 hc         1 RSA       0.058200
     23 H7          -1.7410    -1.7360     0.3300 ha         1 RSA       0.109000
     24 H4           0.4000     1.6030     3.3220 ha         1 RSA       0.113000
     25 H5          -1.9210     0.8520     3.7390 ha         1 RSA       0.111000
     26 H6          -2.9780    -0.8130     2.2620 ha         1 RSA       0.111000
@<TRIPOS>BOND
     1     1     2 3   
     2     1    14 1   
     3     2     3 1   
     4     3     4 1   
     5     3    15 1   
     6     3    16 1   
     7     4     5 1   
     8     4    17 1   
     9     5     6 1   
    10     5     9 1   
    11     5    18 1   
    12     6     7 1   
    13     6    19 1   
    14     6    20 1   
    15     7     8 1   
    16     7    21 1   
    17     7    22 1   
    18     8     9 ar  
    19     8    11 ar  
    20     9    10 ar  
    21    10    13 ar  
    22    10    23 1   
    23    11    12 ar  
    24    11    24 1   
    25    12    13 ar  
    26    12    25 1   
    27    13    26 1   
@<TRIPOS>SUBSTRUCTURE
     1 RSA         1 TEMP              0 ****  ****    0 ROOT
