@<TRIPOS>MOLECULE
RSA
   26    27     1     0     0
SMALL
No Charge or Current Charge


@<TRIPOS>ATOM
      1 C13         -0.6740     1.0770    -4.5710 c1         1 RSA      -0.237000
      2 C12         -0.6420     0.4580    -3.5300 c1         1 RSA      -0.145100
      3 C11         -0.6000    -0.3220    -2.2890 c3         1 RSA       0.239900
      4 N10          0.7000    -0.1340    -1.6250 n7         1 RSA      -0.847400
      5 C9           0.9240    -0.9350    -0.3960 c5         1 RSA       0.211800
      6 C1           2.3230    -0.5020     0.1920 c5         1 RSA      -0.075400
      7 C2           2.0270     0.7000     1.1710 c5         1 RSA      -0.028100
      8 C3           0.6290     0.3520     1.6110 ca         1 RSA      -0.066300
      9 C8           0.0220    -0.5440     0.7520 ca         1 RSA      -0.089300
     10 C7          -1.2830    -1.0050     0.9980 ca         1 RSA      -0.094000
     11 C4          -0.0430     0.8390     2.7440 ca         1 RSA      -0.101000
     12 C5          -1.3540     0.3940     3.0010 ca         1 RSA      -0.105000
     13 C6          -1.9730    -0.5280     2.1310 ca         1 RSA      -0.116000
     14 H13         -0.6930     1.6340    -5.4870 ha         1 RSA       0.254000
     15 H111        -0.7640    -1.3800    -2.5340 h1         1 RSA       0.048200
     16 H112        -1.4240     0.0060    -1.6400 h1         1 RSA       0.048200
     17 H10          1.4240    -0.3740    -2.3090 hn         1 RSA       0.412000
     18 H9           0.8840    -2.0130    -0.6080 h1         1 RSA       0.035700
     19 H11          2.7520    -1.3370     0.7580 hc         1 RSA       0.047700
     20 H12          3.0600    -0.2450    -0.5780 hc         1 RSA       0.047700
     21 H21          2.7430     0.7480     1.9990 hc         1 RSA       0.058200
     22 H22          2.0530     1.6630     0.6480 hc         1 RSA       0.058200
     23 H7          -1.7540    -1.7170     0.3250 ha         1 RSA       0.109000
     24 H4           0.4410     1.5480     3.4120 ha         1 RSA       0.113000
     25 H5          -1.8900     0.7600     3.8750 ha         1 RSA       0.111000
     26 H6          -2.9840    -0.8730     2.3350 ha         1 RSA       0.111000
@<TRIPOS>BOND
     1     1     2 3   
     2     1    14 1   
     3     2     3 1   
     4     3     4 1   
     5     3    15 1   
     6     3    16 1   
     7     4     5 1   
     8     4    17 1   
     9     5     6 1   
    10     5     9 1   
    11     5    18 1   
    12     6     7 1   
    13     6    19 1   
    14     6    20 1   
    15     7     8 1   
    16     7    21 1   
    17     7    22 1   
    18     8     9 ar  
    19     8    11 ar  
    20     9    10 ar  
    21    10    13 ar  
    22    10    23 1   
    23    11    12 ar  
    24    11    24 1   
    25    12    13 ar  
    26    12    25 1   
    27    13    26 1   
@<TRIPOS>SUBSTRUCTURE
     1 RSA         1 TEMP              0 ****  ****    0 ROOT
