@<TRIPOS>MOLECULE
RSB
   62    66     1     0     0
SMALL
No Charge or Current Charge


@<TRIPOS>ATOM
      1 CAC          4.9940   -13.6160   -19.2550 ca         1 RSB       0.042000
      2 CAD          4.0290   -14.0480   -20.1770 ca         1 RSB      -0.211000
      3 SAW          2.4560   -14.7150   -19.7730 ss         1 RSB       0.037800
      4 CAX          2.2170   -14.8570   -21.5290 cc         1 RSB       0.394100
      5 NAY          3.2040   -14.4530   -22.3450 nd         1 RSB      -0.530100
      6 CAE          4.2380   -13.9900   -21.5410 ca         1 RSB       0.134400
      7 CAF          5.4480   -13.4870   -22.0420 ca         1 RSB      -0.075000
      8 CAA          6.4430   -13.0530   -21.1450 ca         1 RSB      -0.019000
      9 CAB          6.2170   -13.1140   -19.7500 ca         1 RSB      -0.264500
     10 SAG          7.5020   -12.5770   -18.6120 sy         1 RSB       1.182600
     11 OAH          6.9920   -12.5590   -17.2370 o          1 RSB      -0.541500
     12 OAI          8.1440   -11.4060   -19.2180 o          1 RSB      -0.541500
     13 N            8.6540   -13.8320   -18.7230 n3         1 RSB      -0.773500
     14 CA           9.9870   -13.5600   -18.0620 c6         1 RSB       0.159500
     15 C           11.2540   -14.0400   -18.8520 c          1 RSB       0.573000
     16 O           12.1680   -13.2600   -19.0980 o          1 RSB      -0.576000
     17 CB           9.9780   -14.0810   -16.5900 c6         1 RSB      -0.086400
     18 CAL          9.4810   -15.5330   -16.4340 c6         1 RSB      -0.074400
     19 CAO          8.1050   -15.6910   -17.1170 c6         1 RSB      -0.099400
     20 CAN          8.1600   -15.2470   -18.6040 c6         1 RSB       0.241500
     21 CAQ          8.9430   -16.3010   -19.4730 c3         1 RSB      -0.083700
     22 CAU          8.0090   -17.0880   -20.4230 c3         1 RSB       0.157600
     23 OAV          7.5320   -16.1980   -21.4440 os         1 RSB      -0.456000
     24 CBH          6.5870   -16.7850   -22.3530 c3         1 RSB       0.143900
     25 CAR         10.1540   -15.7340   -20.2300 c3         1 RSB       0.132000
     26 NAS         11.2830   -15.3620   -19.3400 n          1 RSB      -0.390800
     27 CAZ         12.6070   -16.0360   -19.5510 c3         1 RSB       0.052400
     28 CBA         12.5060   -17.5730   -19.7180 c3         1 RSB      -0.105100
     29 CBB         13.5160   -15.4260   -20.6370 ca         1 RSB       0.332300
     30 NBC         14.8190   -15.2560   -20.2940 nb         1 RSB      -0.662000
     31 CBD         15.6640   -14.7370   -21.2150 ca         1 RSB       0.335900
     32 CBE         15.2550   -14.3790   -22.5100 ca         1 RSB      -0.161000
     33 CBF         13.9140   -14.5640   -22.8770 ca         1 RSB      -0.072000
     34 CBG         13.0340   -15.1000   -21.9240 ca         1 RSB      -0.155000
     35 HAC          4.7990   -13.6780   -18.1850 ha         1 RSB       0.149000
     36 HAX          1.2800   -15.2680   -21.8820 h5         1 RSB       0.059800
     37 HAF          5.6190   -13.4440   -23.1140 ha         1 RSB       0.135000
     38 HAA          7.3890   -12.6800   -21.5330 ha         1 RSB       0.147000
     39 HA          10.1540   -12.4740   -18.0090 h1         1 RSB       0.112700
     40 HB1         10.9840   -13.9850   -16.1580 hc         1 RSB       0.064200
     41 HB2          9.3370   -13.4240   -15.9880 hc         1 RSB       0.064200
     42 HAM          9.3990   -15.7860   -15.3680 hc         1 RSB       0.046200
     43 HAL         10.2150   -16.2300   -16.8590 hc         1 RSB       0.046200
     44 HB3          7.3560   -15.0970   -16.5780 hc         1 RSB       0.057200
     45 HAO          7.7660   -16.7330   -17.0440 hc         1 RSB       0.057200
     46 HAN          7.1240   -15.2990   -18.9650 h1         1 RSB       0.069700
     47 HAQ          9.3520   -17.0730   -18.8120 hc         1 RSB       0.066700
     48 HAU          7.1720   -17.5060   -19.8480 h1         1 RSB       0.026200
     49 HB5          8.5630   -17.9230   -20.8720 h1         1 RSB       0.026200
     50 HB9          6.2930   -16.0590   -23.1200 h1         1 RSB       0.030700
     51 HBH          7.0210   -17.6580   -22.8580 h1         1 RSB       0.030700
     52 HB8          5.6820   -17.1040   -21.8200 h1         1 RSB       0.030700
     53 HB4          9.8440   -14.8560   -20.8120 h1         1 RSB       0.056200
     54 HAR         10.4840   -16.4780   -20.9630 h1         1 RSB       0.056200
     55 HAZ         13.1450   -15.8910   -18.6040 h1         1 RSB       0.107700
     56 HBA         11.8520   -18.0040   -18.9510 hc         1 RSB       0.043700
     57 HB6         12.1230   -17.8530   -20.7060 hc         1 RSB       0.043700
     58 HB7         13.4980   -18.0290   -19.6100 hc         1 RSB       0.043700
     59 HBD         16.7000   -14.6090   -20.9050 h4         1 RSB       0.021100
     60 HBE         15.9740   -13.9680   -23.2130 ha         1 RSB       0.126000
     61 HBF         13.5660   -14.3010   -23.8740 ha         1 RSB       0.120000
     62 HBG         11.9940   -15.2580   -22.1850 ha         1 RSB       0.124000
@<TRIPOS>BOND
     1     1     2 ar  
     2     1     9 ar  
     3     1    35 1   
     4     2     3 1   
     5     2     6 ar  
     6     3     4 1   
     7     4     5 2   
     8     4    36 1   
     9     5     6 1   
    10     6     7 ar  
    11     7     8 ar  
    12     7    37 1   
    13     8     9 ar  
    14     8    38 1   
    15     9    10 1   
    16    10    11 2   
    17    10    12 2   
    18    10    13 1   
    19    13    14 1   
    20    13    20 1   
    21    14    15 1   
    22    14    17 1   
    23    14    39 1   
    24    15    16 2   
    25    15    26 1   
    26    17    18 1   
    27    17    40 1   
    28    17    41 1   
    29    18    19 1   
    30    18    42 1   
    31    18    43 1   
    32    19    20 1   
    33    19    44 1   
    34    19    45 1   
    35    20    21 1   
    36    20    46 1   
    37    21    22 1   
    38    21    25 1   
    39    21    47 1   
    40    22    23 1   
    41    22    48 1   
    42    22    49 1   
    43    23    24 1   
    44    24    50 1   
    45    24    51 1   
    46    24    52 1   
    47    25    26 1   
    48    25    53 1   
    49    25    54 1   
    50    26    27 1   
    51    27    28 1   
    52    27    29 1   
    53    27    55 1   
    54    28    56 1   
    55    28    57 1   
    56    28    58 1   
    57    29    30 ar  
    58    29    34 ar  
    59    30    31 ar  
    60    31    32 ar  
    61    31    59 1   
    62    32    33 ar  
    63    32    60 1   
    64    33    34 ar  
    65    33    61 1   
    66    34    62 1   
@<TRIPOS>SUBSTRUCTURE
     1 RSB         1 TEMP              0 ****  ****    0 ROOT
