@<TRIPOS>MOLECULE
RSB
   62    66     1     0     0
SMALL
bcc


@<TRIPOS>ATOM
      1 CAC          5.9770   -13.5370   -20.2620 ca         1 RSB       0.024000
      2 CAD          5.6740   -13.7500   -21.6010 ca         1 RSB      -0.084100
      3 SAW          4.2100   -14.3440   -22.2980 ss         1 RSB      -0.089100
      4 CAX          4.9490   -14.2010   -23.8600 cc         1 RSB       0.394100
      5 NAY          6.1550   -13.7590   -23.8900 nd         1 RSB      -0.530100
      6 CAE          6.6030   -13.4930   -22.6210 ca         1 RSB       0.134400
      7 CAF          7.8740   -13.0100   -22.2960 ca         1 RSB      -0.093000
      8 CAA          8.1900   -12.8020   -20.9730 ca         1 RSB      -0.037000
      9 CAB          7.2430   -13.0700   -19.9750 ca         1 RSB      -0.264500
     10 SAG          7.7150   -12.8320   -18.2850 sy         1 RSB       1.324200
     11 OAH          6.5080   -12.9450   -17.4790 o          1 RSB      -0.612300
     12 OAI          8.5070   -11.6150   -18.1920 o          1 RSB      -0.612300
     13 N            8.7290   -14.1030   -18.0130 n3         1 RSB      -0.773500
     14 CA          10.0020   -13.8950   -17.3450 c6         1 RSB       0.159500
     15 C           11.2150   -14.4930   -18.0630 c          1 RSB       0.715500
     16 O           12.3050   -14.2350   -17.5670 o          1 RSB      -0.651500
     17 CB           9.9200   -14.3190   -15.8750 c6         1 RSB      -0.086400
     18 CAL          9.3580   -15.7240   -15.7110 c6         1 RSB      -0.074400
     19 CAO          8.0270   -15.8630   -16.4420 c6         1 RSB      -0.099400
     20 CAN          8.1430   -15.4400   -17.9040 c6         1 RSB       0.241500
     21 CAQ          8.9780   -16.4360   -18.7360 c3         1 RSB      -0.083700
     22 CAU          8.0770   -17.4680   -19.3950 c3         1 RSB       0.134400
     23 OAV          7.3100   -16.8470   -20.3930 os         1 RSB      -0.409600
     24 CBH          6.4340   -17.7320   -21.0420 c3         1 RSB       0.120700
     25 CAR          9.8610   -15.7460   -19.7670 c3         1 RSB       0.132000
     26 NAS         11.0920   -15.1880   -19.2120 n          1 RSB      -0.457800
     27 CAZ         12.3120   -15.4840   -19.9670 c3         1 RSB       0.052400
     28 CBA         12.7320   -16.9380   -19.8110 c3         1 RSB      -0.105100
     29 CBB         12.1270   -15.0090   -21.3970 ca         1 RSB       0.397600
     30 NBC         11.8170   -13.7200   -21.5240 nb         1 RSB      -0.662000
     31 CBD         11.6420   -13.2220   -22.7380 ca         1 RSB       0.401200
     32 CBE         11.7640   -13.9740   -23.8980 ca         1 RSB      -0.244300
     33 CBF         12.0900   -15.3130   -23.7700 ca         1 RSB      -0.090000
     34 CBG         12.2750   -15.8410   -22.4990 ca         1 RSB      -0.238300
     35 HAC          5.2540   -13.7390   -19.4840 ha         1 RSB       0.167000
     36 HAX          4.3890   -14.4780   -24.7440 h5         1 RSB       0.059800
     37 HAF          8.5940   -12.8080   -23.0770 ha         1 RSB       0.153000
     38 HAA          9.1780   -12.4460   -20.7080 ha         1 RSB       0.165000
     39 HA          10.2200   -12.8260   -17.3720 h1         1 RSB       0.112700
     40 HB1         10.9030   -14.2290   -15.4130 hc         1 RSB       0.064200
     41 HB2          9.2660   -13.6050   -15.3670 hc         1 RSB       0.064200
     42 HAM          9.2220   -15.9430   -14.6510 hc         1 RSB       0.046200
     43 HAL         10.0780   -16.4610   -16.0790 hc         1 RSB       0.046200
     44 HB3          7.2730   -15.2430   -15.9530 hc         1 RSB       0.057200
     45 HAO          7.6670   -16.8940   -16.3950 hc         1 RSB       0.057200
     46 HAN          7.1440   -15.3970   -18.3410 h1         1 RSB       0.069700
     47 HAQ          9.6390   -17.0000   -18.0700 hc         1 RSB       0.066700
     48 HAU          7.4300   -17.9360   -18.6370 h1         1 RSB       0.026200
     49 HB5          8.6930   -18.2730   -19.8210 h1         1 RSB       0.026200
     50 HB9          5.8760   -17.1650   -21.7870 h1         1 RSB       0.030700
     51 HBH          6.9700   -18.5420   -21.5510 h1         1 RSB       0.030700
     52 HB8          5.7190   -18.1870   -20.3460 h1         1 RSB       0.030700
     53 HB4          9.3130   -14.9960   -20.3360 h1         1 RSB       0.056200
     54 HAR         10.1690   -16.5020   -20.4900 h1         1 RSB       0.056200
     55 HAZ         13.1020   -14.8660   -19.5420 h1         1 RSB       0.107700
     56 HBA         12.8890   -17.1600   -18.7560 hc         1 RSB       0.043700
     57 HB6         11.9880   -17.6380   -20.1950 hc         1 RSB       0.043700
     58 HB7         13.6700   -17.1290   -20.3320 hc         1 RSB       0.043700
     59 HBD         11.3920   -12.1670   -22.7950 h4         1 RSB       0.021100
     60 HBE         11.6070   -13.5180   -24.8660 ha         1 RSB       0.144000
     61 HBF         12.1960   -15.9430   -24.6430 ha         1 RSB       0.138000
     62 HBG         12.5250   -16.8860   -22.3790 ha         1 RSB       0.142000
@<TRIPOS>BOND
     1     1     2 ar  
     2     1     9 ar  
     3     1    35 1   
     4     2     3 1   
     5     2     6 ar  
     6     3     4 1   
     7     4     5 2   
     8     4    36 1   
     9     5     6 1   
    10     6     7 ar  
    11     7     8 ar  
    12     7    37 1   
    13     8     9 ar  
    14     8    38 1   
    15     9    10 1   
    16    10    11 2   
    17    10    12 2   
    18    10    13 1   
    19    13    14 1   
    20    13    20 1   
    21    14    15 1   
    22    14    17 1   
    23    14    39 1   
    24    15    16 2   
    25    15    26 1   
    26    17    18 1   
    27    17    40 1   
    28    17    41 1   
    29    18    19 1   
    30    18    42 1   
    31    18    43 1   
    32    19    20 1   
    33    19    44 1   
    34    19    45 1   
    35    20    21 1   
    36    20    46 1   
    37    21    22 1   
    38    21    25 1   
    39    21    47 1   
    40    22    23 1   
    41    22    48 1   
    42    22    49 1   
    43    23    24 1   
    44    24    50 1   
    45    24    51 1   
    46    24    52 1   
    47    25    26 1   
    48    25    53 1   
    49    25    54 1   
    50    26    27 1   
    51    27    28 1   
    52    27    29 1   
    53    27    55 1   
    54    28    56 1   
    55    28    57 1   
    56    28    58 1   
    57    29    30 ar  
    58    29    34 ar  
    59    30    31 ar  
    60    31    32 ar  
    61    31    59 1   
    62    32    33 ar  
    63    32    60 1   
    64    33    34 ar  
    65    33    61 1   
    66    34    62 1   
@<TRIPOS>SUBSTRUCTURE
     1 RSB         1 TEMP              0 ****  ****    0 ROOT
