@<TRIPOS>MOLECULE
RSE
   52    54     1     0     0
SMALL
abcg2


@<TRIPOS>ATOM
      1 OC2         -2.8040    -2.2540    -1.7560 o          1 RSE      -0.816500
      2 PC          -1.8570    -2.2290    -0.6050 p5         1 RSE       1.448800
      3 OC1         -2.0750    -2.9970     0.6540 o          1 RSE      -0.816500
      4 OBC         -1.6460    -0.6190    -0.2550 os         1 RSE      -0.683800
      5 PB          -1.3060     0.1060     1.1570 p5         1 RSE       1.883300
      6 OB           0.0290    -0.3320     1.6910 o          1 RSE      -0.860500
      7 SEB         -2.9810    -0.0370     2.4840 s          1 RSE      -1.407000
      8 OAB         -1.2140     1.5970     0.5240 os         1 RSE      -0.702800
      9 PA          -1.4580     3.0740     1.2670 p5         1 RSE       1.444800
     10 OA2         -3.0840     3.1540     1.2750 oh         1 RSE      -0.791400
     11 OA1         -0.9130     3.0030     2.6570 o          1 RSE      -0.856000
     12 OA3         -0.9890     4.0890     0.2780 o          1 RSE      -0.856000
     13 O5          -0.3830    -2.5860    -1.2260 os         1 RSE      -0.588400
     14 C5           0.6320    -3.0890    -0.3820 c3         1 RSE       0.210600
     15 C4           1.9270    -3.1030    -1.1630 c5         1 RSE       0.126300
     16 C3           3.1020    -3.6630    -0.3540 c5         1 RSE       0.096300
     17 O3           4.0860    -4.2490    -1.1630 oh         1 RSE      -0.718000
     18 C2           3.6930    -2.3790     0.2260 c5         1 RSE       0.116300
     19 O2           5.0280    -2.4100     0.5960 os         1 RSE      -0.438000
     20 CM2          5.2760    -3.1680     1.7600 c3         1 RSE       0.149900
     21 C1           3.5100    -1.4220    -0.9490 c5         1 RSE       0.314300
     22 O4           2.3000    -1.7680    -1.5400 os         1 RSE      -0.409000
     23 N9           3.4690    -0.0300    -0.5390 na         1 RSE      -0.040700
     24 C9           4.3860     0.9300    -0.8850 cc         1 RSE       0.196400
     25 N3           5.4310     0.7580    -1.6860 nc         1 RSE      -0.690100
     26 C10          6.1490     1.8500    -1.8520 cd         1 RSE       0.750800
     27 N2           7.2260     1.8180    -2.6270 nv         1 RSE      -1.058200
     28 N1           5.8420     3.0370    -1.2490 ns         1 RSE      -0.455400
     29 C6           4.7610     3.2770    -0.4000 c          1 RSE       0.633600
     30 O6           4.5630     4.3700     0.0900 o          1 RSE      -0.498000
     31 C7           4.0010     2.0810    -0.2410 cd         1 RSE      -0.355600
     32 N7           2.8620     1.7880     0.4790 na         1 RSE       0.126000
     33 CM7          2.1070     2.7110     1.3130 c3         1 RSE       0.023900
     34 C8           2.5600     0.5260     0.2810 cc         1 RSE       0.022700
     35 H2          -3.4700     2.4250     1.7900 ho         1 RSE       0.475000
     36 H5           0.7360    -2.4890     0.5280 h1         1 RSE       0.041200
     37 H6           0.4090    -4.1150    -0.0720 h1         1 RSE       0.041200
     38 H7           1.7840    -3.6880    -2.0770 h1         1 RSE       0.078700
     39 H8           2.7550    -4.3490     0.4280 h1         1 RSE       0.067700
     40 H9           3.7260    -5.0530    -1.5500 ho         1 RSE       0.503000
     41 H10          3.0550    -2.0580     1.0670 h1         1 RSE       0.088700
     42 H11          6.3390    -3.0880     1.9800 h1         1 RSE       0.031367
     43 H12          4.7130    -2.7860     2.6190 h1         1 RSE       0.031367
     44 H13          5.0280    -4.2250     1.6290 h1         1 RSE       0.031367
     45 H14          4.3520    -1.4990    -1.6430 h2         1 RSE       0.105700
     46 H15          7.4460     0.9720    -3.1240 hn         1 RSE       0.510500
     47 H16          7.7760     2.6360    -2.8240 hn         1 RSE       0.510500
     48 H17          6.4390     3.8360    -1.4280 hn         1 RSE       0.321500
     49 H18          1.5970     3.4390     0.6890 h1         1 RSE       0.113700
     50 H19          1.3760     2.1510     1.8830 h1         1 RSE       0.113700
     51 H20          2.7880     3.2170     1.9890 h1         1 RSE       0.113700
     52 H21          1.6910     0.0340     0.7210 h5         1 RSE       0.318000
@<TRIPOS>BOND
     1     1     2 1   
     2     2     3 1   
     3     2     4 1   
     4     2    13 1   
     5     4     5 1   
     6     5     6 1   
     7     5     7 1   
     8     5     8 1   
     9     8     9 1   
    10     9    10 1   
    11     9    11 1   
    12     9    12 1   
    13    10    35 1   
    14    13    14 1   
    15    14    15 1   
    16    14    36 1   
    17    14    37 1   
    18    15    16 1   
    19    15    22 1   
    20    15    38 1   
    21    16    17 1   
    22    16    18 1   
    23    16    39 1   
    24    17    40 1   
    25    18    19 1   
    26    18    21 1   
    27    18    41 1   
    28    19    20 1   
    29    20    42 1   
    30    20    43 1   
    31    20    44 1   
    32    21    22 1   
    33    21    23 1   
    34    21    45 1   
    35    23    24 1   
    36    23    34 2   
    37    24    25 1   
    38    24    31 2   
    39    25    26 2   
    40    26    27 1   
    41    26    28 1   
    42    27    46 1   
    43    27    47 1   
    44    28    29 1   
    45    28    48 1   
    46    29    30 2   
    47    29    31 1   
    48    31    32 1   
    49    32    33 1   
    50    32    34 1   
    51    33    49 1   
    52    33    50 1   
    53    33    51 1   
    54    34    52 1   
@<TRIPOS>SUBSTRUCTURE
     1 RSE         1 TEMP              0 ****  ****    0 ROOT
