@<TRIPOS>MOLECULE
RSE
   52    54     1     0     0
SMALL
No Charge or Current Charge


@<TRIPOS>ATOM
      1 OC2         -3.0430    -2.4240    -0.7180 o          1 RSE      -0.816500
      2 PC          -1.7420    -2.1120    -0.0580 p5         1 RSE       1.448800
      3 OC1         -1.8770    -2.0340     1.4230 o          1 RSE      -0.816500
      4 OBC         -1.0240    -0.9330    -0.7940 os         1 RSE      -0.683800
      5 PB          -0.9850     0.3620     0.0780 p5         1 RSE       1.883300
      6 OB          -0.1300     0.2050     1.2870 o          1 RSE      -0.860500
      7 SEB         -2.7870     1.1580     0.3130 s          1 RSE      -1.407000
      8 OAB         -0.2580     1.1960    -1.0280 os         1 RSE      -0.702800
      9 PA          -0.1480     2.7140    -0.6790 p5         1 RSE       1.444800
     10 OA2         -1.5770     3.1890    -1.1610 oh         1 RSE      -0.791400
     11 OA1          0.0630     3.0530     0.7490 o          1 RSE      -0.856000
     12 OA3          0.8760     3.3570    -1.5460 o          1 RSE      -0.856000
     13 O5          -0.6780    -3.2610    -0.4360 os         1 RSE      -0.588400
     14 C5           0.6010    -3.3200     0.2160 c3         1 RSE       0.210600
     15 C4           1.7210    -3.1070    -0.8470 c5         1 RSE       0.126300
     16 C3           3.0980    -3.7430    -0.4440 c5         1 RSE       0.096300
     17 O3           3.9290    -3.9680    -1.6030 oh         1 RSE      -0.718000
     18 C2           3.6150    -2.5900     0.4800 c5         1 RSE       0.116300
     19 O2           5.0510    -2.7050     0.7020 os         1 RSE      -0.438000
     20 CM2          5.5100    -3.8190     1.4890 c3         1 RSE       0.149900
     21 C1           3.3040    -1.3800    -0.4390 c5         1 RSE       0.314300
     22 O4           2.0030    -1.6840    -1.0090 os         1 RSE      -0.409000
     23 N9           3.3090    -0.0420     0.1560 na         1 RSE      -0.040700
     24 C9           3.8900     1.0900    -0.4070 cc         1 RSE       0.196400
     25 N3           4.5280     1.2020    -1.6190 nc         1 RSE      -0.690100
     26 C10          4.9540     2.4160    -1.8680 cd         1 RSE       0.750800
     27 N2           5.5710     2.5690    -3.0260 nv         1 RSE      -1.058200
     28 N1           4.8490     3.5020    -1.0830 ns         1 RSE      -0.455400
     29 C6           4.2480     3.4820     0.1310 c          1 RSE       0.633600
     30 O6           4.1670     4.4650     0.8480 o          1 RSE      -0.498000
     31 C7           3.7420     2.1460     0.4530 cd         1 RSE      -0.355600
     32 N7           3.0670     1.6630     1.5520 na         1 RSE       0.126000
     33 CM7          2.6640     2.4740     2.7100 c3         1 RSE       0.023900
     34 C8           2.8170     0.3210     1.4050 cc         1 RSE       0.022700
     35 H2          -2.0810     2.5100    -0.6230 ho         1 RSE       0.475000
     36 H5           0.6970    -2.5690     1.0110 h1         1 RSE       0.041200
     37 H6           0.7280    -4.3100     0.6750 h1         1 RSE       0.041200
     38 H7           1.3660    -3.5150    -1.8030 h1         1 RSE       0.078700
     39 H8           2.9630    -4.6780     0.1210 h1         1 RSE       0.067700
     40 H9           3.6140    -4.7920    -2.0440 ho         1 RSE       0.503000
     41 H10          3.0840    -2.5410     1.4400 h1         1 RSE       0.088700
     42 H11          6.5980    -3.7690     1.6190 h1         1 RSE       0.031367
     43 H12          5.0460    -3.8100     2.4840 h1         1 RSE       0.031367
     44 H13          5.2710    -4.7730     1.0010 h1         1 RSE       0.031367
     45 H14          4.0450    -1.3540    -1.2470 h2         1 RSE       0.105700
     46 H15          5.4560     1.7690    -3.6350 hn         1 RSE       0.510500
     47 H16          5.4690     3.4660    -3.4820 hn         1 RSE       0.510500
     48 H17          5.2450     4.3780    -1.3740 hn         1 RSE       0.321500
     49 H18          2.1960     3.4020     2.3640 h1         1 RSE       0.113700
     50 H19          1.9420     1.9240     3.3240 h1         1 RSE       0.113700
     51 H20          3.5460     2.7170     3.3130 h1         1 RSE       0.113700
     52 H21          2.2580    -0.3020     2.0950 h5         1 RSE       0.318000
@<TRIPOS>BOND
     1     1     2 1   
     2     2     3 1   
     3     2     4 1   
     4     2    13 1   
     5     4     5 1   
     6     5     6 1   
     7     5     7 1   
     8     5     8 1   
     9     8     9 1   
    10     9    10 1   
    11     9    11 1   
    12     9    12 1   
    13    10    35 1   
    14    13    14 1   
    15    14    15 1   
    16    14    36 1   
    17    14    37 1   
    18    15    16 1   
    19    15    22 1   
    20    15    38 1   
    21    16    17 1   
    22    16    18 1   
    23    16    39 1   
    24    17    40 1   
    25    18    19 1   
    26    18    21 1   
    27    18    41 1   
    28    19    20 1   
    29    20    42 1   
    30    20    43 1   
    31    20    44 1   
    32    21    22 1   
    33    21    23 1   
    34    21    45 1   
    35    23    24 1   
    36    23    34 2   
    37    24    25 1   
    38    24    31 2   
    39    25    26 2   
    40    26    27 1   
    41    26    28 1   
    42    27    46 1   
    43    27    47 1   
    44    28    29 1   
    45    28    48 1   
    46    29    30 2   
    47    29    31 1   
    48    31    32 1   
    49    32    33 1   
    50    32    34 1   
    51    33    49 1   
    52    33    50 1   
    53    33    51 1   
    54    34    52 1   
@<TRIPOS>SUBSTRUCTURE
     1 RSE         1 TEMP              0 ****  ****    0 ROOT
