@<TRIPOS>MOLECULE
RSF
   19    20     1     0     0
SMALL
No Charge or Current Charge


@<TRIPOS>ATOM
      1 C5           1.8810    -0.3430     0.4530 c5         1 RSF       0.151600
      2 C6           1.2610    -1.3000    -0.5960 c5         1 RSF      -0.092400
      3 O1           1.7740     0.9370    -0.1990 os         1 RSF      -0.441000
      4 C4          -1.7020     0.7880     0.0020 c5         1 RSF       0.120600
      5 O2          -0.4580     1.4650     0.2490 os         1 RSF      -0.456000
      6 C1           0.4530     1.0170    -0.7700 c5         1 RSF       0.372300
      7 C2           0.0340    -0.4570    -1.0960 c5         1 RSF      -0.125700
      8 C3          -1.2650    -0.6900    -0.2270 c5         1 RSF       0.141300
      9 O3          -1.0570    -1.3930     1.0090 oh         1 RSF      -0.706000
     10 H15          1.3160    -0.3220     1.3940 h1         1 RSF       0.057700
     11 H25          2.9320    -0.5710     0.6730 h1         1 RSF       0.057700
     12 H16          1.9710    -1.4730    -1.4130 hc         1 RSF       0.060200
     13 H26          1.0050    -2.2850    -0.1910 hc         1 RSF       0.060200
     14 H14         -2.3790     0.9140     0.8570 h1         1 RSF       0.050700
     15 H24         -2.1770     1.2150    -0.8930 h1         1 RSF       0.050700
     16 H1           0.4240     1.6750    -1.6490 h2         1 RSF       0.077700
     17 H2          -0.1620    -0.5950    -2.1650 hc         1 RSF       0.069700
     18 H3          -2.0240    -1.2200    -0.8190 h1         1 RSF       0.042700
     19 HO3         -1.9320    -1.4560     1.4580 ho         1 RSF       0.506000
@<TRIPOS>BOND
     1     1     2 1   
     2     1     3 1   
     3     1    10 1   
     4     1    11 1   
     5     2     7 1   
     6     2    12 1   
     7     2    13 1   
     8     3     6 1   
     9     4     5 1   
    10     4     8 1   
    11     4    14 1   
    12     4    15 1   
    13     5     6 1   
    14     6     7 1   
    15     6    16 1   
    16     7     8 1   
    17     7    17 1   
    18     8     9 1   
    19     8    18 1   
    20     9    19 1   
@<TRIPOS>SUBSTRUCTURE
     1 RSF         1 TEMP              0 ****  ****    0 ROOT
