@<TRIPOS>MOLECULE
RSF
   19    20     1     0     0
SMALL
bcc


@<TRIPOS>ATOM
      1 C5           1.9050    -0.3670     0.4370 c5         1 RSF       0.128400
      2 C6           1.2350    -1.2840    -0.5760 c5         1 RSF      -0.092400
      3 O1           1.6860     0.9460    -0.0720 os         1 RSF      -0.394600
      4 C4          -1.7260     0.7840    -0.0510 c5         1 RSF       0.097400
      5 O2          -0.5330     1.5080     0.1690 os         1 RSF      -0.409600
      6 C1           0.4490     0.9880    -0.6990 c5         1 RSF       0.325900
      7 C2           0.0240    -0.4640    -1.0220 c5         1 RSF      -0.125700
      8 C3          -1.2840    -0.6620    -0.2430 c5         1 RSF       0.118100
      9 O3          -1.0300    -1.3130     0.9780 oh         1 RSF      -0.583800
     10 H15          1.4680    -0.4810     1.4330 h1         1 RSF       0.057700
     11 H25          2.9810    -0.5220     0.5180 h1         1 RSF       0.057700
     12 H16          1.9000    -1.4510    -1.4250 hc         1 RSF       0.060200
     13 H26          0.9800    -2.2570    -0.1610 hc         1 RSF       0.060200
     14 H14         -2.3960     0.9280     0.8000 h1         1 RSF       0.050700
     15 H24         -2.2470     1.1370    -0.9520 h1         1 RSF       0.050700
     16 H1           0.5390     1.6320    -1.5810 h2         1 RSF       0.077700
     17 H2          -0.1740    -0.5870    -2.0870 hc         1 RSF       0.069700
     18 H3          -2.0180    -1.2170    -0.8370 h1         1 RSF       0.042700
     19 HO3         -1.8650    -1.4110     1.4470 ho         1 RSF       0.407000
@<TRIPOS>BOND
     1     1     2 1   
     2     1     3 1   
     3     1    10 1   
     4     1    11 1   
     5     2     7 1   
     6     2    12 1   
     7     2    13 1   
     8     3     6 1   
     9     4     5 1   
    10     4     8 1   
    11     4    14 1   
    12     4    15 1   
    13     5     6 1   
    14     6     7 1   
    15     6    16 1   
    16     7     8 1   
    17     7    17 1   
    18     8     9 1   
    19     8    18 1   
    20     9    19 1   
@<TRIPOS>SUBSTRUCTURE
     1 RSF         1 TEMP              0 ****  ****    0 ROOT
