@<TRIPOS>MOLECULE
RSG
   19    20     1     0     0
SMALL
No Charge or Current Charge


@<TRIPOS>ATOM
      1 C1          -1.2720     0.7160    -0.2390 c5         1 RSG       0.141300
      2 O1          -0.4750    -1.4330     0.2810 os         1 RSG      -0.457000
      3 C2           0.0320     0.4630    -1.0960 c5         1 RSG      -0.124700
      4 O2           1.7610    -0.9210    -0.1640 os         1 RSG      -0.441000
      5 C3           0.4430    -1.0060    -0.7410 c5         1 RSG       0.373300
      6 O3          -1.0670     1.4410     0.9860 oh         1 RSG      -0.707000
      7 C4          -1.7160    -0.7550     0.0150 c5         1 RSG       0.121600
      8 C5           1.8700     0.3700     0.4650 c5         1 RSG       0.151600
      9 C6           1.2590     1.3100    -0.6050 c5         1 RSG      -0.092400
     10 H1          -2.0250     1.2390    -0.8450 h1         1 RSG       0.043700
     11 H2          -0.1590     0.5820    -2.1690 hc         1 RSG       0.069700
     12 H3           0.4160    -1.6800    -1.6080 h2         1 RSG       0.077700
     13 HO3         -1.9440     1.5150     1.4290 ho         1 RSG       0.505000
     14 H4          -2.3970    -0.8630     0.8690 h1         1 RSG       0.050700
     15 H4A         -2.1880    -1.1970    -0.8740 h1         1 RSG       0.050700
     16 H5           1.2990     0.3690     1.4030 h1         1 RSG       0.058200
     17 H5A          2.9210     0.5980     0.6870 h1         1 RSG       0.058200
     18 H6           1.9740     1.4650    -1.4210 hc         1 RSG       0.060200
     19 H6A          1.0050     2.3040    -0.2200 hc         1 RSG       0.060200
@<TRIPOS>BOND
     1     1     3 1   
     2     1     6 1   
     3     1     7 1   
     4     1    10 1   
     5     2     5 1   
     6     2     7 1   
     7     3     5 1   
     8     3     9 1   
     9     3    11 1   
    10     4     5 1   
    11     4     8 1   
    12     5    12 1   
    13     6    13 1   
    14     7    14 1   
    15     7    15 1   
    16     8     9 1   
    17     8    16 1   
    18     8    17 1   
    19     9    18 1   
    20     9    19 1   
@<TRIPOS>SUBSTRUCTURE
     1 RSG         1 TEMP              0 ****  ****    0 ROOT
