@<TRIPOS>MOLECULE
RSG
   19    20     1     0     0
SMALL
abcg2


@<TRIPOS>ATOM
      1 C1          -1.2890     0.6870    -0.2520 c5         1 RSG       0.141300
      2 O1          -0.5560    -1.4820     0.1930 os         1 RSG      -0.457000
      3 C2           0.0210     0.4700    -1.0220 c5         1 RSG      -0.124700
      4 O2           1.6670    -0.9260    -0.0250 os         1 RSG      -0.441000
      5 C3           0.4390    -0.9770    -0.6690 c5         1 RSG       0.373300
      6 O3          -1.0330     1.3510     0.9630 oh         1 RSG      -0.707000
      7 C4          -1.7430    -0.7520    -0.0430 c5         1 RSG       0.121600
      8 C5           1.8920     0.3990     0.4510 c5         1 RSG       0.151600
      9 C6           1.2330     1.2940    -0.5890 c5         1 RSG      -0.092400
     10 H1          -2.0170     1.2410    -0.8540 h1         1 RSG       0.043700
     11 H2          -0.1730     0.5720    -2.0900 hc         1 RSG       0.069700
     12 H3           0.5400    -1.6350    -1.5390 h2         1 RSG       0.077700
     13 HO3         -1.8690     1.4640     1.4270 ho         1 RSG       0.505000
     14 H4          -2.4170    -0.8800     0.8070 h1         1 RSG       0.050700
     15 H4A         -2.2620    -1.1130    -0.9410 h1         1 RSG       0.050700
     16 H5           1.4490     0.5420     1.4410 h1         1 RSG       0.058200
     17 H5A          2.9690     0.5500     0.5340 h1         1 RSG       0.058200
     18 H6           1.9040     1.4350    -1.4380 hc         1 RSG       0.060200
     19 H6A          0.9810     2.2790    -0.2000 hc         1 RSG       0.060200
@<TRIPOS>BOND
     1     1     3 1   
     2     1     6 1   
     3     1     7 1   
     4     1    10 1   
     5     2     5 1   
     6     2     7 1   
     7     3     5 1   
     8     3     9 1   
     9     3    11 1   
    10     4     5 1   
    11     4     8 1   
    12     5    12 1   
    13     6    13 1   
    14     7    14 1   
    15     7    15 1   
    16     8     9 1   
    17     8    16 1   
    18     8    17 1   
    19     9    18 1   
    20     9    19 1   
@<TRIPOS>SUBSTRUCTURE
     1 RSG         1 TEMP              0 ****  ****    0 ROOT
