@<TRIPOS>MOLECULE
RSH
   23    22     1     0     0
SMALL
abcg2


@<TRIPOS>ATOM
      1 O2          -3.6570     0.2330     0.7750 o          1 RSH      -0.714000
      2 C1          -2.9370    -0.4170    -0.0190 c          1 RSH       0.696000
      3 O1          -3.1310    -1.5570    -0.4620 o          1 RSH      -0.714000
      4 C2          -1.6540     0.3200    -0.4600 c3         1 RSH       0.009300
      5 C3          -0.4080    -0.4390    -0.0040 c3         1 RSH      -0.112400
      6 C4           0.8890     0.2980    -0.3240 c3         1 RSH       0.145300
      7 O4           0.9810     1.5280     0.3700 oh         1 RSH      -0.779000
      8 C5           2.1270    -0.5210     0.0460 c3         1 RSH       0.167300
      9 O5           2.2160    -0.7180     1.4390 oh         1 RSH      -0.651000
     10 C6           3.3900     0.1090    -0.5220 c3         1 RSH       0.128600
     11 O6           4.4810    -0.7420    -0.2580 oh         1 RSH      -0.714000
     12 OT          -1.6870     1.6310     0.0760 oh         1 RSH      -0.735000
     13 H2C1        -1.6410     0.3840    -1.5560 h1         1 RSH       0.035700
     14 H3C1        -0.3970    -1.4080    -0.5060 hc         1 RSH       0.059200
     15 H3C2        -0.4660    -0.6340     1.0720 hc         1 RSH       0.059200
     16 H4           0.9180     0.4640    -1.4140 h1         1 RSH       0.024700
     17 HA           0.0720     1.8590     0.4650 ho         1 RSH       0.556000
     18 H5           2.0160    -1.5150    -0.4030 h1         1 RSH       0.072700
     19 HB           2.0410     0.1350     1.8540 ho         1 RSH       0.450000
     20 H6C1         3.5410     1.1050    -0.0860 h1         1 RSH       0.021200
     21 H6C2         3.2450     0.2530    -1.6020 h1         1 RSH       0.021200
     22 H6           5.2700    -0.3380    -0.6290 ho         1 RSH       0.484000
     23 HT          -2.4720     1.5870     0.6610 ho         1 RSH       0.488000
@<TRIPOS>BOND
     1     1     2 1   
     2     2     3 1   
     3     2     4 1   
     4     4     5 1   
     5     4    12 1   
     6     4    13 1   
     7     5     6 1   
     8     5    14 1   
     9     5    15 1   
    10     6     7 1   
    11     6     8 1   
    12     6    16 1   
    13     7    17 1   
    14     8     9 1   
    15     8    10 1   
    16     8    18 1   
    17     9    19 1   
    18    10    11 1   
    19    10    20 1   
    20    10    21 1   
    21    11    22 1   
    22    12    23 1   
@<TRIPOS>SUBSTRUCTURE
     1 RSH         1 TEMP              0 ****  ****    0 ROOT
