@<TRIPOS>MOLECULE
RSH
   23    22     1     0     0
SMALL
No Charge or Current Charge


@<TRIPOS>ATOM
      1 O2          -3.8340     0.0070     0.6500 o          1 RSH      -0.714000
      2 C1          -3.0100    -0.4430    -0.1370 c          1 RSH       0.696000
      3 O1          -3.1910    -1.4530    -0.8040 o          1 RSH      -0.714000
      4 C2          -1.6840     0.3820    -0.3450 c3         1 RSH       0.009300
      5 C3          -0.4180    -0.4290     0.0530 c3         1 RSH      -0.112400
      6 C4           0.9160     0.2600    -0.3290 c3         1 RSH       0.145300
      7 O4           0.9130     1.5510     0.2890 oh         1 RSH      -0.779000
      8 C5           2.1890    -0.5440     0.0890 c3         1 RSH       0.167300
      9 O5           2.2940    -0.5120     1.5250 oh         1 RSH      -0.651000
     10 C6           3.4840     0.0290    -0.5680 c3         1 RSH       0.128600
     11 O6           4.6330    -0.7990    -0.2990 oh         1 RSH      -0.714000
     12 OT          -1.7060     1.6330     0.3960 oh         1 RSH      -0.735000
     13 H2C1        -1.6250     0.5960    -1.4210 h1         1 RSH       0.035700
     14 H3C1        -0.4520    -1.4060    -0.4450 hc         1 RSH       0.059200
     15 H3C2        -0.4440    -0.6320     1.1310 hc         1 RSH       0.059200
     16 H4           0.9270     0.3740    -1.4210 h1         1 RSH       0.024700
     17 HA          -0.0750     1.7460     0.3670 ho         1 RSH       0.556000
     18 H5           2.0690    -1.5780    -0.2620 h1         1 RSH       0.072700
     19 HB           1.9530     0.3830     1.7560 ho         1 RSH       0.450000
     20 H6C1         3.6570     1.0490    -0.1990 h1         1 RSH       0.021200
     21 H6C2         3.3250     0.0980    -1.6530 h1         1 RSH       0.021200
     22 H6           5.4150    -0.3420    -0.6860 ho         1 RSH       0.484000
     23 HT          -2.6010     1.6480     0.8270 ho         1 RSH       0.488000
@<TRIPOS>BOND
     1     1     2 1   
     2     2     3 1   
     3     2     4 1   
     4     4     5 1   
     5     4    12 1   
     6     4    13 1   
     7     5     6 1   
     8     5    14 1   
     9     5    15 1   
    10     6     7 1   
    11     6     8 1   
    12     6    16 1   
    13     7    17 1   
    14     8     9 1   
    15     8    10 1   
    16     8    18 1   
    17     9    19 1   
    18    10    11 1   
    19    10    20 1   
    20    10    21 1   
    21    11    22 1   
    22    12    23 1   
@<TRIPOS>SUBSTRUCTURE
     1 RSH         1 TEMP              0 ****  ****    0 ROOT
