@<TRIPOS>MOLECULE
RSI
   59    63     1     0     0
SMALL
abcg2


@<TRIPOS>ATOM
      1 C10         12.7150    68.0070   -33.0320 ca         1 RSI      -0.107000
      2 C9          12.9350    66.6630   -33.3250 ca         1 RSI      -0.086300
      3 C8          12.4810    66.1670   -34.5450 ca         1 RSI      -0.107000
      4 N2          13.3510    66.0040   -30.9590 nu         1 RSI      -0.922100
      5 C7          11.8230    66.9890   -35.4490 ca         1 RSI      -0.082000
      6 N1          10.0500    68.6190   -36.9850 nb         1 RSI      -0.672000
      7 C1           9.4030    69.3750   -37.8730 ca         1 RSI       0.340900
      8 C2          10.9010    69.2110   -36.1310 cp         1 RSI       0.407500
      9 C3          11.1240    70.5930   -36.1670 ca         1 RSI      -0.154000
     10 C4          10.4420    71.3680   -37.0910 ca         1 RSI      -0.072000
     11 C5           9.5570    70.7520   -37.9670 ca         1 RSI      -0.166000
     12 C6          11.6030    68.3390   -35.1610 cp         1 RSI      -0.147500
     13 O1           7.1590    63.1820   -33.2150 os         1 RSI      -0.457000
     14 C11         12.0610    68.8340   -33.9340 ca         1 RSI      -0.082000
     15 C12         13.6590    65.7530   -32.3540 c3         1 RSI       0.283100
     16 C13         12.1200    65.8220   -30.4360 ca         1 RSI       0.472900
     17 C14          9.9340    65.0730   -30.6820 ca         1 RSI       0.432900
     18 C15         10.4850    65.9700   -28.7150 ca         1 RSI       0.170500
     19 C16         11.8000    66.2030   -29.1170 ca         1 RSI      -0.137600
     20 C17         11.6640    66.9220   -27.1180 cc         1 RSI       0.391700
     21 C19          8.7810    65.0320   -26.2200 c3         1 RSI      -0.107100
     22 C20          8.1420    67.3400   -27.0750 c3         1 RSI      -0.107100
     23 C21          9.2700    64.3690   -32.9460 c6         1 RSI       0.185800
     24 C22          8.5510    63.1640   -33.5240 c6         1 RSI       0.141600
     25 C23          6.9640    63.1900   -31.8020 c6         1 RSI       0.141600
     26 C24          7.6190    64.3960   -31.1500 c6         1 RSI       0.185800
     27 N3          11.1720    65.2610   -31.1900 nb         1 RSI      -0.334000
     28 N4           9.5160    65.4200   -29.4560 nb         1 RSI      -0.287000
     29 N5          12.5250    66.8030   -28.1000 nd         1 RSI      -0.550100
     30 N6          10.4120    66.4390   -27.4220 na         1 RSI      -0.297300
     31 N7           9.0300    64.4480   -31.5080 nh         1 RSI      -0.766300
     32 H101        13.0380    68.4080   -32.0790 ha         1 RSI       0.113500
     33 H81         12.6320    65.1210   -34.7850 ha         1 RSI       0.113500
     34 H21         14.0180    66.5070   -30.3990 hn         1 RSI       0.513000
     35 H71         11.4710    66.5870   -36.3890 ha         1 RSI       0.121500
     36 H11          8.7250    68.8540   -38.5420 h4         1 RSI       0.019100
     37 H31         11.8340    71.0490   -35.4930 ha         1 RSI       0.124000
     38 H41         10.6070    72.4380   -37.1320 ha         1 RSI       0.119000
     39 H51          9.0040    71.3170   -38.7050 ha         1 RSI       0.124000
     40 H111        11.8860    69.8670   -33.6660 ha         1 RSI       0.121500
     41 H121        13.4260    64.7160   -32.6010 h1         1 RSI       0.060700
     42 H122        14.7380    65.8780   -32.4620 h1         1 RSI       0.060700
     43 H171        11.8690    67.3500   -26.1480 h5         1 RSI       0.061800
     44 H181         9.6270    66.8980   -25.5970 h1         1 RSI       0.050700
     45 H192         7.9800    65.0620   -25.4790 hc         1 RSI       0.051033
     46 H193         8.4010    64.5520   -27.1220 hc         1 RSI       0.051033
     47 H191         9.5990    64.4300   -25.8210 hc         1 RSI       0.051033
     48 H201         7.3280    67.4030   -26.3510 hc         1 RSI       0.051033
     49 H203         8.5140    68.3470   -27.2660 hc         1 RSI       0.051033
     50 H202         7.7470    66.9300   -28.0050 hc         1 RSI       0.051033
     51 H212        10.3360    64.2860   -33.1290 h1         1 RSI       0.063950
     52 H211         8.9090    65.2830   -33.4380 h1         1 RSI       0.063950
     53 H221         8.9990    62.2420   -33.1320 h1         1 RSI       0.052950
     54 H222         8.6330    63.1640   -34.6110 h1         1 RSI       0.052950
     55 H232         5.8880    63.2100   -31.6320 h1         1 RSI       0.052950
     56 H231         7.3770    62.2680   -31.3720 h1         1 RSI       0.052950
     57 H241         7.1110    65.3140   -31.4780 h1         1 RSI       0.063950
     58 H242         7.5230    64.3250   -30.0700 h1         1 RSI       0.063950
     59 C18          9.2520    66.4520   -26.5190 c3         1 RSI       0.108300
@<TRIPOS>BOND
     1     1     2 ar  
     2     1    14 ar  
     3     1    32 1   
     4     2     3 ar  
     5     2    15 1   
     6     3     5 ar  
     7     3    33 1   
     8     4    15 1   
     9     4    16 1   
    10     4    34 1   
    11     5    12 ar  
    12     5    35 1   
    13     6     7 ar  
    14     6     8 ar  
    15     7    11 ar  
    16     7    36 1   
    17     8     9 ar  
    18     8    12 1   
    19     9    10 ar  
    20     9    37 1   
    21    10    11 ar  
    22    10    38 1   
    23    11    39 1   
    24    12    14 ar  
    25    13    24 1   
    26    13    25 1   
    27    14    40 1   
    28    15    41 1   
    29    15    42 1   
    30    16    19 ar  
    31    16    27 ar  
    32    17    27 ar  
    33    17    28 ar  
    34    17    31 1   
    35    18    19 ar  
    36    18    28 ar  
    37    18    30 1   
    38    19    29 1   
    39    20    29 2   
    40    20    30 1   
    41    20    43 1   
    42    21    45 1   
    43    21    46 1   
    44    21    47 1   
    45    21    59 1   
    46    22    48 1   
    47    22    49 1   
    48    22    50 1   
    49    22    59 1   
    50    23    24 1   
    51    23    31 1   
    52    23    51 1   
    53    23    52 1   
    54    24    53 1   
    55    24    54 1   
    56    25    26 1   
    57    25    55 1   
    58    25    56 1   
    59    26    31 1   
    60    26    57 1   
    61    26    58 1   
    62    30    59 1   
    63    44    59 1   
@<TRIPOS>SUBSTRUCTURE
     1 RSI         1 TEMP              0 ****  ****    0 ROOT
