@<TRIPOS>MOLECULE
RSI
   59    63     1     0     0
SMALL
No Charge or Current Charge


@<TRIPOS>ATOM
      1 C10         13.2830    68.1120   -33.1980 ca         1 RSI      -0.107000
      2 C9          13.0840    66.7220   -33.2930 ca         1 RSI      -0.086300
      3 C8          12.1730    66.2270   -34.2430 ca         1 RSI      -0.107000
      4 N2          13.3940    65.9070   -30.9760 nu         1 RSI      -0.922100
      5 C7          11.4700    67.1060   -35.0840 ca         1 RSI      -0.082000
      6 N1           9.7450    68.9960   -36.4430 nb         1 RSI      -0.672000
      7 C1           9.0260    69.8020   -37.2570 ca         1 RSI       0.340900
      8 C2          10.9040    69.4560   -35.9120 cp         1 RSI       0.407500
      9 C3          11.3750    70.7610   -36.2150 ca         1 RSI      -0.154000
     10 C4          10.6320    71.5990   -37.0630 ca         1 RSI      -0.072000
     11 C5           9.4310    71.1040   -37.5900 ca         1 RSI      -0.166000
     12 C6          11.6580    68.5140   -35.0080 cp         1 RSI      -0.147500
     13 O1           7.1020    62.8270   -33.2420 os         1 RSI      -0.457000
     14 C11         12.5820    68.9920   -34.0400 ca         1 RSI      -0.082000
     15 C12         13.8400    65.7660   -32.3720 c3         1 RSI       0.283100
     16 C13         12.1130    65.6990   -30.4830 ca         1 RSI       0.472900
     17 C14         10.0060    64.8230   -30.7220 ca         1 RSI       0.432900
     18 C15         10.4460    66.0100   -28.8110 ca         1 RSI       0.170500
     19 C16         11.7280    66.2360   -29.2400 ca         1 RSI      -0.137600
     20 C17         11.6060    67.2340   -27.3320 cc         1 RSI       0.391700
     21 C19          8.7510    65.2700   -26.2550 c3         1 RSI      -0.107100
     22 C20          7.9870    67.4200   -27.4240 c3         1 RSI      -0.107100
     23 C21          9.3630    63.7970   -32.9650 c6         1 RSI       0.185800
     24 C22          8.5010    62.6360   -33.5440 c6         1 RSI       0.141600
     25 C23          6.8510    62.8630   -31.8200 c6         1 RSI       0.141600
     26 C24          7.6190    64.0390   -31.1460 c6         1 RSI       0.185800
     27 N3          11.2500    64.9860   -31.2240 nb         1 RSI      -0.334000
     28 N4           9.5620    65.3040   -29.5370 nb         1 RSI      -0.287000
     29 N5          12.4760    67.0000   -28.3330 nd         1 RSI      -0.550100
     30 N6          10.3690    66.6430   -27.5990 na         1 RSI      -0.297300
     31 N7           9.0830    64.0830   -31.5100 nh         1 RSI      -0.766300
     32 H101        13.9780    68.5120   -32.4640 ha         1 RSI       0.113500
     33 H81         12.0050    65.1560   -34.3310 ha         1 RSI       0.113500
     34 H21         13.9560    66.4970   -30.3630 hn         1 RSI       0.513000
     35 H71         10.7760    66.6860   -35.8090 ha         1 RSI       0.121500
     36 H11          8.1000    69.3890   -37.6560 h4         1 RSI       0.019100
     37 H31         12.3160    71.1160   -35.8100 ha         1 RSI       0.124000
     38 H41         10.9810    72.6010   -37.3060 ha         1 RSI       0.119000
     39 H51          8.8200    71.7120   -38.2500 ha         1 RSI       0.124000
     40 H111        12.7510    70.0590   -33.9190 ha         1 RSI       0.121500
     41 H121        13.6910    64.7310   -32.7110 h1         1 RSI       0.060700
     42 H122        14.9160    65.9790   -32.4460 h1         1 RSI       0.060700
     43 H171        11.8010    67.7980   -26.4280 h5         1 RSI       0.061800
     44 H181         9.4240    67.2540   -25.8580 h1         1 RSI       0.050700
     45 H192         7.9280    65.3420   -25.5340 hc         1 RSI       0.051033
     46 H193         8.4220    64.6330   -27.0830 hc         1 RSI       0.051033
     47 H191         9.5950    64.7780   -25.7560 hc         1 RSI       0.051033
     48 H201         7.1500    67.5300   -26.7240 hc         1 RSI       0.051033
     49 H203         8.2990    68.4230   -27.7390 hc         1 RSI       0.051033
     50 H202         7.6220    66.8800   -28.3060 hc         1 RSI       0.051033
     51 H212        10.4170    63.5190   -33.1160 h1         1 RSI       0.063950
     52 H211         9.1800    64.7020   -33.5630 h1         1 RSI       0.063950
     53 H221         8.8340    61.6790   -33.1180 h1         1 RSI       0.052950
     54 H222         8.6320    62.5840   -34.6340 h1         1 RSI       0.052950
     55 H232         5.7720    62.9760   -31.6460 h1         1 RSI       0.052950
     56 H231         7.1670    61.9090   -31.3740 h1         1 RSI       0.052950
     57 H241         7.1360    64.9840   -31.4350 h1         1 RSI       0.063950
     58 H242         7.4870    63.9290   -30.0600 h1         1 RSI       0.063950
     59 C18          9.1590    66.6730   -26.7520 c3         1 RSI       0.108300
@<TRIPOS>BOND
     1     1     2 ar  
     2     1    14 ar  
     3     1    32 1   
     4     2     3 ar  
     5     2    15 1   
     6     3     5 ar  
     7     3    33 1   
     8     4    15 1   
     9     4    16 1   
    10     4    34 1   
    11     5    12 ar  
    12     5    35 1   
    13     6     7 ar  
    14     6     8 ar  
    15     7    11 ar  
    16     7    36 1   
    17     8     9 ar  
    18     8    12 1   
    19     9    10 ar  
    20     9    37 1   
    21    10    11 ar  
    22    10    38 1   
    23    11    39 1   
    24    12    14 ar  
    25    13    24 1   
    26    13    25 1   
    27    14    40 1   
    28    15    41 1   
    29    15    42 1   
    30    16    19 ar  
    31    16    27 ar  
    32    17    27 ar  
    33    17    28 ar  
    34    17    31 1   
    35    18    19 ar  
    36    18    28 ar  
    37    18    30 1   
    38    19    29 1   
    39    20    29 2   
    40    20    30 1   
    41    20    43 1   
    42    21    45 1   
    43    21    46 1   
    44    21    47 1   
    45    21    59 1   
    46    22    48 1   
    47    22    49 1   
    48    22    50 1   
    49    22    59 1   
    50    23    24 1   
    51    23    31 1   
    52    23    51 1   
    53    23    52 1   
    54    24    53 1   
    55    24    54 1   
    56    25    26 1   
    57    25    55 1   
    58    25    56 1   
    59    26    31 1   
    60    26    57 1   
    61    26    58 1   
    62    30    59 1   
    63    44    59 1   
@<TRIPOS>SUBSTRUCTURE
     1 RSI         1 TEMP              0 ****  ****    0 ROOT
