@<TRIPOS>MOLECULE
RSK
   32    33     1     0     0
SMALL
abcg2


@<TRIPOS>ATOM
      1 N1           0.0740     1.2710    -1.4330 n8         1 RSK      -0.982200
      2 C8           0.4060     0.0830    -0.6610 c3         1 RSK       0.173800
      3 C9           1.8860     0.0490    -0.3600 ca         1 RSK      -0.078300
      4 C14          2.6570    -1.0550    -0.7100 ca         1 RSK      -0.103000
      5 C13          4.0170    -1.0980    -0.4250 ca         1 RSK      -0.108500
      6 C12          4.6250    -0.0310     0.2200 ca         1 RSK      -0.107000
      7 C11          3.8650     1.0740     0.5810 ca         1 RSK      -0.108500
      8 C10          2.5070     1.1110     0.2950 ca         1 RSK      -0.103000
      9 C1          -0.4140    -0.0840     0.6480 c3         1 RSK       0.173800
     10 C2          -1.8940    -0.0520     0.3460 ca         1 RSK      -0.078300
     11 C7          -2.6670     1.0500     0.6990 ca         1 RSK      -0.103000
     12 C6          -4.0270     1.0930     0.4150 ca         1 RSK      -0.108500
     13 C5          -4.6340     0.0270    -0.2340 ca         1 RSK      -0.107000
     14 C4          -3.8720    -1.0760    -0.5980 ca         1 RSK      -0.108500
     15 C3          -2.5140    -1.1130    -0.3130 ca         1 RSK      -0.103000
     16 N2          -0.0830    -1.2720     1.4200 n8         1 RSK      -0.982200
     17 H1          -0.8930     1.2210    -1.7300 hn         1 RSK       0.398500
     18 H2           0.1370     2.0990    -0.8510 hn         1 RSK       0.398500
     19 H4           0.1810    -0.7820    -1.2960 h1         1 RSK       0.061700
     20 H5           2.1890    -1.8920    -1.2140 ha         1 RSK       0.108500
     21 H6           4.5980    -1.9650    -0.7110 ha         1 RSK       0.113500
     22 H7           5.6840    -0.0600     0.4420 ha         1 RSK       0.113500
     23 H8           4.3300     1.9110     1.0870 ha         1 RSK       0.113500
     24 H9           1.9350     1.9830     0.5950 ha         1 RSK       0.108500
     25 H10         -0.1900     0.7810     1.2820 h1         1 RSK       0.061700
     26 H11         -2.2000     1.8870     1.2050 ha         1 RSK       0.108500
     27 H12         -4.6100     1.9580     0.7020 ha         1 RSK       0.113500
     28 H13         -5.6930     0.0550    -0.4560 ha         1 RSK       0.113500
     29 H14         -4.3360    -1.9120    -1.1060 ha         1 RSK       0.113500
     30 H15         -1.9410    -1.9820    -0.6150 ha         1 RSK       0.108500
     31 H16         -0.1490    -2.1010     0.8400 hn         1 RSK       0.398500
     32 H17          0.8850    -1.2240     1.7150 hn         1 RSK       0.398500
@<TRIPOS>BOND
     1     1     2 1   
     2     1    17 1   
     3     1    18 1   
     4     2     3 1   
     5     2     9 1   
     6     2    19 1   
     7     3     4 ar  
     8     3     8 ar  
     9     4     5 ar  
    10     4    20 1   
    11     5     6 ar  
    12     5    21 1   
    13     6     7 ar  
    14     6    22 1   
    15     7     8 ar  
    16     7    23 1   
    17     8    24 1   
    18     9    10 1   
    19     9    16 1   
    20     9    25 1   
    21    10    11 ar  
    22    10    15 ar  
    23    11    12 ar  
    24    11    26 1   
    25    12    13 ar  
    26    12    27 1   
    27    13    14 ar  
    28    13    28 1   
    29    14    15 ar  
    30    14    29 1   
    31    15    30 1   
    32    16    31 1   
    33    16    32 1   
@<TRIPOS>SUBSTRUCTURE
     1 RSK         1 TEMP              0 ****  ****    0 ROOT
