@<TRIPOS>MOLECULE
RSK
   32    33     1     0     0
SMALL
No Charge or Current Charge


@<TRIPOS>ATOM
      1 N1           0.1110     1.0340    -1.6230 n8         1 RSK      -0.982200
      2 C8           0.4430    -0.0370    -0.6540 c3         1 RSK       0.173800
      3 C9           1.9450    -0.0190    -0.3470 ca         1 RSK      -0.078300
      4 C14          2.7720    -1.0610    -0.8180 ca         1 RSK      -0.103000
      5 C13          4.1500    -1.0590    -0.5390 ca         1 RSK      -0.108500
      6 C12          4.7160    -0.0150     0.2110 ca         1 RSK      -0.107000
      7 C11          3.9020     1.0290     0.6800 ca         1 RSK      -0.108500
      8 C10          2.5240     1.0290     0.4030 ca         1 RSK      -0.103000
      9 C1          -0.4510     0.0240     0.6410 c3         1 RSK       0.173800
     10 C2          -1.9530     0.0140     0.3340 ca         1 RSK      -0.078300
     11 C7          -2.7760     1.0560     0.8100 ca         1 RSK      -0.103000
     12 C6          -4.1540     1.0620     0.5320 ca         1 RSK      -0.108500
     13 C5          -4.7240     0.0240    -0.2240 ca         1 RSK      -0.107000
     14 C4          -3.9140    -1.0210    -0.7000 ca         1 RSK      -0.108500
     15 C3          -2.5360    -1.0270    -0.4220 ca         1 RSK      -0.103000
     16 N2          -0.1230    -1.0510     1.6060 n8         1 RSK      -0.982200
     17 H1          -0.9100     1.0710    -1.7260 hn         1 RSK       0.398500
     18 H2           0.3470     1.9410    -1.2070 hn         1 RSK       0.398500
     19 H4           0.2170    -0.9900    -1.1530 h1         1 RSK       0.061700
     20 H5           2.3470    -1.8750    -1.4010 ha         1 RSK       0.108500
     21 H6           4.7800    -1.8670    -0.9050 ha         1 RSK       0.113500
     22 H7           5.7820    -0.0140     0.4260 ha         1 RSK       0.113500
     23 H8           4.3390     1.8400     1.2590 ha         1 RSK       0.113500
     24 H9           1.9090     1.8470     0.7700 ha         1 RSK       0.108500
     25 H10         -0.2210     0.9750     1.1430 h1         1 RSK       0.061700
     26 H11         -2.3480     1.8650     1.3980 ha         1 RSK       0.108500
     27 H12         -4.7800     1.8710     0.9030 ha         1 RSK       0.113500
     28 H13         -5.7900     0.0280    -0.4390 ha         1 RSK       0.113500
     29 H14         -4.3550    -1.8270    -1.2830 ha         1 RSK       0.113500
     30 H15         -1.9240    -1.8460    -0.7930 ha         1 RSK       0.108500
     31 H16         -0.3630    -1.9560     1.1880 hn         1 RSK       0.398500
     32 H17          0.8970    -1.0930     1.7100 hn         1 RSK       0.398500
@<TRIPOS>BOND
     1     1     2 1   
     2     1    17 1   
     3     1    18 1   
     4     2     3 1   
     5     2     9 1   
     6     2    19 1   
     7     3     4 ar  
     8     3     8 ar  
     9     4     5 ar  
    10     4    20 1   
    11     5     6 ar  
    12     5    21 1   
    13     6     7 ar  
    14     6    22 1   
    15     7     8 ar  
    16     7    23 1   
    17     8    24 1   
    18     9    10 1   
    19     9    16 1   
    20     9    25 1   
    21    10    11 ar  
    22    10    15 ar  
    23    11    12 ar  
    24    11    26 1   
    25    12    13 ar  
    26    12    27 1   
    27    13    14 ar  
    28    13    28 1   
    29    14    15 ar  
    30    14    29 1   
    31    15    30 1   
    32    16    31 1   
    33    16    32 1   
@<TRIPOS>SUBSTRUCTURE
     1 RSK         1 TEMP              0 ****  ****    0 ROOT
