@<TRIPOS>MOLECULE
RSL
   41    43     1     0     0
SMALL
No Charge or Current Charge


@<TRIPOS>ATOM
      1 N1         -16.7100     4.3380    26.6330 nb         1 RSL      -0.646000
      2 C4         -18.4790     6.4630    25.9820 ca         1 RSL      -0.002000
      3 C5         -18.9420     5.3160    26.6760 ca         1 RSL      -0.069000
      4 C6         -21.0820     5.9620    27.8870 c          1 RSL       0.592100
      5 C7         -22.5050     5.4440    28.1260 c3         1 RSL      -0.109100
      6 C8         -22.6140     4.7880    29.4990 ca         1 RSL      -0.064300
      7 C10        -23.0400     4.9560    31.8980 ca         1 RSL      -0.099000
      8 C13        -22.3790     3.4060    29.6480 ca         1 RSL      -0.085000
      9 C15        -16.2670     5.4460    25.9970 ca         1 RSL       0.361900
     10 C17        -16.5860     7.6380    24.9630 ca         1 RSL      -0.085000
     11 C12        -22.4740     2.8060    30.9150 ca         1 RSL       0.127000
     12 C11        -22.8040     3.5780    32.0400 ca         1 RSL      -0.094000
     13 C9         -22.9450     5.5590    30.6310 ca         1 RSL      -0.092000
     14 O3         -20.6760     7.0070    28.3840 o          1 RSL      -0.551100
     15 N          -20.2890     5.1430    27.0980 ns         1 RSL      -0.174000
     16 C14        -18.0210     4.2840    26.9570 ca         1 RSL       0.305900
     17 C16        -17.1060     6.5220    25.6480 ca         1 RSL      -0.082000
     18 C3         -19.3290     7.5190    25.5810 ca         1 RSL      -0.064000
     19 C2         -18.8050     8.6300    24.8960 ca         1 RSL      -0.088000
     20 C1         -17.4340     8.7000    24.6070 ca         1 RSL       0.114100
     21 O2         -16.9430     9.7800    23.9170 os         1 RSL      -0.467800
     22 S          -16.1030    10.9450    24.7300 s6         1 RSL       1.339700
     23 O          -15.2770    11.6930    23.7730 o          1 RSL      -0.539000
     24 O1         -15.5160    10.3760    25.9510 o          1 RSL      -0.539000
     25 C          -17.5120    11.9470    25.1790 c3         1 RSL      -0.352100
     26 H1         -23.2000     6.2900    28.0680 hc         1 RSL       0.066700
     27 H2         -22.7650     4.7090    27.3550 hc         1 RSL       0.066700
     28 H3         -23.2950     5.5570    32.7680 ha         1 RSL       0.120000
     29 H4         -22.1210     2.7950    28.7870 ha         1 RSL       0.128000
     30 H5         -15.2060     5.4640    25.7490 h4         1 RSL       0.028100
     31 H6         -15.5300     7.6800    24.7040 ha         1 RSL       0.144000
     32 H7         -22.8770     3.1090    33.0180 ha         1 RSL       0.131000
     33 H8         -23.1250     6.6270    30.5310 ha         1 RSL       0.114000
     34 H9         -20.7220     4.2760    26.8040 hn         1 RSL       0.154000
     35 H10        -18.3460     3.3840    27.4780 h4         1 RSL       0.022100
     36 H11        -20.3960     7.4880    25.7770 ha         1 RSL       0.132000
     37 H12        -19.4660     9.4350    24.5850 ha         1 RSL       0.136000
     38 H13        -17.1290    12.8260    25.7060 h1         1 RSL       0.110700
     39 H14        -18.0230    12.2250    24.2520 h1         1 RSL       0.110700
     40 H15        -18.1530    11.3420    25.8270 h1         1 RSL       0.110700
     41 Cl         -22.1770     1.0810    31.0920 cl         1 RSL      -0.212000
@<TRIPOS>BOND
     1     1     9 ar  
     2     1    16 ar  
     3     2     3 ar  
     4     2    17 ar  
     5     2    18 ar  
     6     3    15 1   
     7     3    16 ar  
     8     4     5 1   
     9     4    14 2   
    10     4    15 1   
    11     5     6 1   
    12     5    26 1   
    13     5    27 1   
    14     6     8 ar  
    15     6    13 ar  
    16     7    12 ar  
    17     7    13 ar  
    18     7    28 1   
    19     8    11 ar  
    20     8    29 1   
    21     9    17 ar  
    22     9    30 1   
    23    10    17 ar  
    24    10    20 ar  
    25    10    31 1   
    26    11    12 ar  
    27    11    41 1   
    28    12    32 1   
    29    13    33 1   
    30    15    34 1   
    31    16    35 1   
    32    18    19 ar  
    33    18    36 1   
    34    19    20 ar  
    35    19    37 1   
    36    20    21 1   
    37    21    22 1   
    38    22    23 2   
    39    22    24 2   
    40    22    25 1   
    41    25    38 1   
    42    25    39 1   
    43    25    40 1   
@<TRIPOS>SUBSTRUCTURE
     1 RSL         1 TEMP              0 ****  ****    0 ROOT
