@<TRIPOS>MOLECULE
RSL
   41    43     1     0     0
SMALL
abcg2


@<TRIPOS>ATOM
      1 N1         -17.0920     4.1560    24.6990 nb         1 RSL      -0.646000
      2 C4         -18.7500     6.2500    25.6210 ca         1 RSL      -0.002000
      3 C5         -19.1010     4.8870    25.8090 ca         1 RSL      -0.069000
      4 C6         -20.6270     4.7830    27.7330 c          1 RSL       0.592100
      5 C7         -21.9680     4.1990    28.1710 c3         1 RSL      -0.109100
      6 C8         -22.2740     4.4390    29.6210 ca         1 RSL      -0.064300
      7 C10        -23.2620     5.7920    31.3640 ca         1 RSL      -0.099000
      8 C13        -21.8150     3.5480    30.5890 ca         1 RSL      -0.085000
      9 C15        -16.7320     5.4090    24.5390 ca         1 RSL       0.361900
     10 C17        -17.0910     7.8420    24.7560 ca         1 RSL      -0.085000
     11 C12        -22.0860     3.7930    31.9270 ca         1 RSL       0.127000
     12 C11        -22.8060     4.9080    32.3350 ca         1 RSL      -0.094000
     13 C9         -22.9990     5.5610    30.0190 ca         1 RSL      -0.092000
     14 O3         -19.9050     5.4430    28.4640 o          1 RSL      -0.551100
     15 N          -20.3170     4.5160    26.4320 ns         1 RSL      -0.174000
     16 C14        -18.2610     3.9070    25.3370 ca         1 RSL       0.305900
     17 C16        -17.5090     6.5090    24.9740 ca         1 RSL      -0.082000
     18 C3         -19.5630     7.3420    26.0060 ca         1 RSL      -0.064000
     19 C2         -19.1460     8.6270    25.7830 ca         1 RSL      -0.088000
     20 C1         -17.9030     8.8600    25.1640 ca         1 RSL       0.114100
     21 O2         -17.5370    10.1920    24.9090 os         1 RSL      -0.467800
     22 S          -16.5940    10.9400    25.9940 s6         1 RSL       1.339700
     23 O          -15.2350    10.5050    25.8060 o          1 RSL      -0.539000
     24 O1         -17.1780    10.7810    27.3000 o          1 RSL      -0.539000
     25 C          -16.8110    12.5820    25.3940 c3         1 RSL      -0.352100
     26 H1         -22.7400     4.6440    27.5390 hc         1 RSL       0.066700
     27 H2         -21.9580     3.1280    27.9490 hc         1 RSL       0.066700
     28 H3         -23.8280     6.6650    31.6640 ha         1 RSL       0.120000
     29 H4         -21.2520     2.6700    30.3010 ha         1 RSL       0.128000
     30 H5         -15.7860     5.5990    24.0400 h4         1 RSL       0.028100
     31 H6         -16.1490     8.0450    24.2650 ha         1 RSL       0.144000
     32 H7         -23.0080     5.0770    33.3840 ha         1 RSL       0.131000
     33 H8         -23.3600     6.2550    29.2700 ha         1 RSL       0.114000
     34 H9         -20.8880     3.8370    25.9480 hn         1 RSL       0.154000
     35 H10        -18.5300     2.8650    25.4670 h4         1 RSL       0.022100
     36 H11        -20.5190     7.1610    26.4740 ha         1 RSL       0.132000
     37 H12        -19.7570     9.4720    26.0680 ha         1 RSL       0.136000
     38 H13        -16.1910    13.2190    26.0240 h1         1 RSL       0.110700
     39 H14        -16.4760    12.6180    24.3600 h1         1 RSL       0.110700
     40 H15        -17.8620    12.8450    25.4860 h1         1 RSL       0.110700
     41 CL         -21.5040     2.6620    33.1350 cl         1 RSL      -0.212000
@<TRIPOS>BOND
     1     1     9 ar  
     2     1    16 ar  
     3     2     3 ar  
     4     2    17 ar  
     5     2    18 ar  
     6     3    15 1   
     7     3    16 ar  
     8     4     5 1   
     9     4    14 2   
    10     4    15 1   
    11     5     6 1   
    12     5    26 1   
    13     5    27 1   
    14     6     8 ar  
    15     6    13 ar  
    16     7    12 ar  
    17     7    13 ar  
    18     7    28 1   
    19     8    11 ar  
    20     8    29 1   
    21     9    17 ar  
    22     9    30 1   
    23    10    17 ar  
    24    10    20 ar  
    25    10    31 1   
    26    11    12 ar  
    27    11    41 1   
    28    12    32 1   
    29    13    33 1   
    30    15    34 1   
    31    16    35 1   
    32    18    19 ar  
    33    18    36 1   
    34    19    20 ar  
    35    19    37 1   
    36    20    21 1   
    37    21    22 1   
    38    22    23 2   
    39    22    24 2   
    40    22    25 1   
    41    25    38 1   
    42    25    39 1   
    43    25    40 1   
@<TRIPOS>SUBSTRUCTURE
     1 RSL         1 TEMP              0 ****  ****    0 ROOT
