@<TRIPOS>MOLECULE
RSM
   30    29     1     0     0
SMALL
No Charge or Current Charge


@<TRIPOS>ATOM
      1 C2           0.7650     3.6810     0.2950 c3         1 RSM      -0.176100
      2 C            0.8350     2.2100    -0.0900 c          1 RSM       0.606100
      3 O            0.7920     1.8370    -1.2530 o          1 RSM      -0.597100
      4 N            0.9470     1.3430     0.9770 ns         1 RSM      -0.497900
      5 CA           1.0420    -0.1370     0.8890 c3         1 RSM       0.047700
      6 CB          -0.1880    -0.7910     0.1920 c3         1 RSM      -0.071400
      7 CG          -1.5480    -0.2960     0.7360 c3         1 RSM      -0.034100
      8 SD          -2.9560    -1.2040    -0.0500 s4         1 RSM       0.166400
      9 OD1         -2.9750    -0.8240    -1.5130 o          1 RSM      -0.496000
     10 CE          -4.3050    -0.2500     0.7700 c3         1 RSM      -0.064800
     11 C3           2.4220    -0.5940     0.3030 c          1 RSM       0.600100
     12 O3           3.3390     0.1790     0.0510 o          1 RSM      -0.598100
     13 N2           2.5620    -1.9520     0.0910 ns         1 RSM      -0.499900
     14 C1           3.7680    -2.5830    -0.4510 c3         1 RSM       0.095300
     15 H2           0.6740     4.3420    -0.5740 hc         1 RSM       0.060700
     16 H2A         -0.0590     3.8270     1.0020 hc         1 RSM       0.060700
     17 H2B          1.6410     3.9320     0.9040 hc         1 RSM       0.060700
     18 HN           0.9930     1.7720     1.8950 hn         1 RSM       0.319500
     19 HA           1.0410    -0.5060     1.9230 h1         1 RSM       0.060700
     20 HB          -0.1440    -0.6050    -0.8880 hc         1 RSM       0.064700
     21 HBA         -0.1450    -1.8790     0.3220 hc         1 RSM       0.064700
     22 HG          -1.6050    -0.4650     1.8190 h1         1 RSM       0.075700
     23 HGA         -1.6800     0.7740     0.5330 h1         1 RSM       0.075700
     24 HE          -4.1380     0.8220     0.6100 h1         1 RSM       0.079033
     25 HEA         -5.2640    -0.5480     0.3300 h1         1 RSM       0.079033
     26 HEB         -4.3000    -0.4770     1.8430 h1         1 RSM       0.079033
     27 HN2          1.7760    -2.5430     0.3340 hn         1 RSM       0.316500
     28 H1           4.6200    -2.3820     0.2120 h1         1 RSM       0.041033
     29 H1A          3.6140    -3.6670    -0.5230 h1         1 RSM       0.041033
     30 H1B          3.9800    -2.1800    -1.4490 h1         1 RSM       0.041033
@<TRIPOS>BOND
     1     1     2 1   
     2     1    15 1   
     3     1    16 1   
     4     1    17 1   
     5     2     3 2   
     6     2     4 1   
     7     4     5 1   
     8     4    18 1   
     9     5     6 1   
    10     5    11 1   
    11     5    19 1   
    12     6     7 1   
    13     6    20 1   
    14     6    21 1   
    15     7     8 1   
    16     7    22 1   
    17     7    23 1   
    18     8     9 2   
    19     8    10 1   
    20    10    24 1   
    21    10    25 1   
    22    10    26 1   
    23    11    12 2   
    24    11    13 1   
    25    13    14 1   
    26    13    27 1   
    27    14    28 1   
    28    14    29 1   
    29    14    30 1   
@<TRIPOS>SUBSTRUCTURE
     1 RSM         1 TEMP              0 ****  ****    0 ROOT
