@<TRIPOS>MOLECULE
RSM
   30    29     1     0     0
SMALL
bcc


@<TRIPOS>ATOM
      1 C2           0.9560     3.4780     0.1430 c3         1 RSM      -0.176100
      2 C            1.0740     1.9870    -0.0320 c          1 RSM       0.673100
      3 O            1.3480     1.4750    -1.1090 o          1 RSM      -0.597100
      4 N            0.8560     1.2500     1.0710 ns         1 RSM      -0.564900
      5 CA           0.9330    -0.1900     1.0630 c3         1 RSM       0.047700
      6 CB          -0.2470    -0.8480     0.3390 c3         1 RSM      -0.071400
      7 CG          -1.5770    -0.3230     0.8540 c3         1 RSM      -0.034100
      8 SD          -2.9390    -1.2060     0.0390 s4         1 RSM       0.139600
      9 OD1         -2.8370    -0.8850    -1.4350 o          1 RSM      -0.469200
     10 CE          -4.2800    -0.2010     0.7010 c3         1 RSM      -0.064800
     11 C3           2.3300    -0.6210     0.5880 c          1 RSM       0.667100
     12 O3           3.3180     0.0110     0.9290 o          1 RSM      -0.598100
     13 N2           2.4090    -1.7410    -0.1380 ns         1 RSM      -0.566900
     14 C1           3.6740    -2.2720    -0.5900 c3         1 RSM       0.095300
     15 H2           0.2070     3.8640    -0.5480 hc         1 RSM       0.060700
     16 H2A          0.6810     3.7780     1.1520 hc         1 RSM       0.060700
     17 H2B          1.9060     3.9490    -0.1110 hc         1 RSM       0.060700
     18 HN           0.6540     1.7110     1.9420 hn         1 RSM       0.319500
     19 HA           0.8860    -0.4960     2.1130 h1         1 RSM       0.060700
     20 HB          -0.1790    -0.6830    -0.7360 hc         1 RSM       0.064700
     21 HBA         -0.2070    -1.9260     0.5160 hc         1 RSM       0.064700
     22 HG          -1.6900    -0.4930     1.9270 h1         1 RSM       0.075700
     23 HGA         -1.7030     0.7420     0.6490 h1         1 RSM       0.075700
     24 HE          -4.1210     0.8430     0.4360 h1         1 RSM       0.079033
     25 HEA         -5.2100    -0.5600     0.2640 h1         1 RSM       0.079033
     26 HEB         -4.3220    -0.3160     1.7820 h1         1 RSM       0.079033
     27 HN2          1.5740    -2.2200    -0.4260 hn         1 RSM       0.316500
     28 H1           4.3290    -2.5140     0.2480 h1         1 RSM       0.041033
     29 H1A          3.4820    -3.1830    -1.1490 h1         1 RSM       0.041033
     30 H1B          4.1960    -1.5700    -1.2410 h1         1 RSM       0.041033
@<TRIPOS>BOND
     1     1     2 1   
     2     1    15 1   
     3     1    16 1   
     4     1    17 1   
     5     2     3 2   
     6     2     4 1   
     7     4     5 1   
     8     4    18 1   
     9     5     6 1   
    10     5    11 1   
    11     5    19 1   
    12     6     7 1   
    13     6    20 1   
    14     6    21 1   
    15     7     8 1   
    16     7    22 1   
    17     7    23 1   
    18     8     9 2   
    19     8    10 1   
    20    10    24 1   
    21    10    25 1   
    22    10    26 1   
    23    11    12 2   
    24    11    13 1   
    25    13    14 1   
    26    13    27 1   
    27    14    28 1   
    28    14    29 1   
    29    14    30 1   
@<TRIPOS>SUBSTRUCTURE
     1 RSM         1 TEMP              0 ****  ****    0 ROOT
