@<TRIPOS>MOLECULE
RSN
   55    57     1     0     0
SMALL
abcg2


@<TRIPOS>ATOM
      1 C1         -41.5890   -24.2960   -13.6370 ca         1 RSN      -0.157000
      2 C2         -41.4190   -24.3210   -12.2400 ca         1 RSN      -0.099300
      3 C3         -42.1160   -23.4430   -11.4340 ca         1 RSN      -0.035000
      4 C4         -43.0070   -22.5620   -12.0530 ca         1 RSN       0.087400
      5 C5         -43.1770   -22.5640   -13.4430 ca         1 RSN      -0.104200
      6 C6         -42.4510   -23.4230   -14.2810 ca         1 RSN       0.233000
      7 N6         -42.6350   -23.4350   -15.6750 nv         1 RSN      -1.054000
      8 N          -49.4800   -14.8280   -12.1230 n8         1 RSN      -0.955200
      9 CA         -49.8820   -16.0470   -12.7800 c3         1 RSN       0.116500
     10 C          -49.1280   -17.2750   -12.2850 c          1 RSN       0.575100
     11 O          -48.0290   -17.2500   -11.7870 o          1 RSN      -0.567100
     12 CB         -49.6660   -15.9360   -14.2900 c3         1 RSN      -0.210400
     13 CG         -50.5920   -14.9000   -14.9710 c          1 RSN       0.736000
     14 OD1        -50.0980   -14.2670   -15.9220 o          1 RSN      -0.724500
     15 OD2        -51.7580   -14.8280   -14.5400 o          1 RSN      -0.724500
     16 C7         -44.8190   -21.4240   -14.9610 c5         1 RSN       0.288300
     17 C9         -45.6870   -22.6420   -15.3540 c5         1 RSN       0.092300
     18 C2M        -40.4220   -25.3000   -11.6790 c3         1 RSN       0.216900
     19 C10        -47.0940   -22.1380   -15.0110 c5         1 RSN       0.147300
     20 C11        -46.9680   -20.6450   -15.2900 c5         1 RSN       0.161300
     21 C12        -47.9680   -19.7590   -14.5960 c3         1 RSN       0.201600
     22 C8         -44.5200   -21.1280   -12.4730 cc         1 RSN       0.454700
     23 N3S        -49.7990   -18.4700   -12.5050 ns         1 RSN      -0.622300
     24 N7         -44.1590   -21.6260   -13.6840 na         1 RSN      -0.196600
     25 N9         -43.8520   -21.6430   -11.4800 nd         1 RSN      -0.582100
     26 O1S        -48.6080   -20.0790   -10.9180 o          1 RSN      -0.553500
     27 O2         -45.5890   -22.9150   -16.7190 oh         1 RSN      -0.693000
     28 O2M        -40.6000   -25.4410   -10.2940 oh         1 RSN      -0.653000
     29 O2S        -50.0900   -20.9120   -12.7560 o          1 RSN      -0.553500
     30 O3         -48.1430   -22.6720   -15.7550 oh         1 RSN      -0.685000
     31 O4         -45.6570   -20.3100   -14.8730 os         1 RSN      -0.427000
     32 O5         -47.8360   -19.9380   -13.1730 os         1 RSN      -0.576700
     33 S          -49.1270   -19.9650   -12.2520 s6         1 RSN       1.433500
     34 H1         -41.0150   -24.9880   -14.2440 ha         1 RSN       0.099000
     35 H2         -42.0000   -23.4360   -10.3590 ha         1 RSN       0.147000
     36 H3         -42.3520   -22.5670   -16.1120 hn         1 RSN       0.421000
     37 H4         -42.1030   -24.1780   -16.1090 hn         1 RSN       0.421000
     38 H8         -50.9510   -16.2010   -12.6050 h1         1 RSN       0.097700
     39 H9         -49.8580   -16.9040   -14.7660 hc         1 RSN       0.020700
     40 H10        -48.6160   -15.7040   -14.4890 hc         1 RSN       0.020700
     41 H12        -44.0470   -21.2430   -15.7130 h2         1 RSN       0.076700
     42 H13        -45.4170   -23.5160   -14.7510 h1         1 RSN       0.068700
     43 H14        -40.5370   -26.2590   -12.2020 h1         1 RSN       0.018200
     44 H15        -39.4100   -24.9430   -11.9180 h1         1 RSN       0.018200
     45 H16        -47.2400   -22.2910   -13.9340 h1         1 RSN       0.059700
     46 H17        -47.0880   -20.4650   -16.3680 h1         1 RSN       0.085700
     47 H18        -47.7880   -18.7070   -14.8240 h1         1 RSN       0.080700
     48 H19        -48.9680   -20.0230   -14.9470 h1         1 RSN       0.080700
     49 H20        -45.2850   -20.3750   -12.3720 h5         1 RSN       0.100800
     50 H21        -50.7180   -18.4690   -12.9330 hn         1 RSN       0.357500
     51 H22        -44.6930   -23.2570   -16.8530 ho         1 RSN       0.517000
     52 H23        -39.8520   -25.9330    -9.9430 ho         1 RSN       0.440000
     53 H24        -48.3530   -23.5470   -15.4150 ho         1 RSN       0.516000
     54 H5         -49.6540   -14.8850   -11.1270 hn         1 RSN       0.392000
     55 H6         -48.4830   -14.6840   -12.2330 hn         1 RSN       0.392000
@<TRIPOS>BOND
     1     1     2 ar  
     2     1     6 ar  
     3     1    34 1   
     4     2     3 ar  
     5     2    18 1   
     6     3     4 ar  
     7     3    35 1   
     8     4     5 ar  
     9     4    25 1   
    10     5     6 ar  
    11     5    24 1   
    12     6     7 1   
    13     7    36 1   
    14     7    37 1   
    15     8     9 1   
    16     8    54 1   
    17     8    55 1   
    18     9    10 1   
    19     9    12 1   
    20     9    38 1   
    21    10    11 2   
    22    10    23 1   
    23    12    13 1   
    24    12    39 1   
    25    12    40 1   
    26    13    14 1   
    27    13    15 1   
    28    16    17 1   
    29    16    24 1   
    30    16    31 1   
    31    16    41 1   
    32    17    19 1   
    33    17    27 1   
    34    17    42 1   
    35    18    28 1   
    36    18    43 1   
    37    18    44 1   
    38    19    20 1   
    39    19    30 1   
    40    19    45 1   
    41    20    21 1   
    42    20    31 1   
    43    20    46 1   
    44    21    32 1   
    45    21    47 1   
    46    21    48 1   
    47    22    24 1   
    48    22    25 2   
    49    22    49 1   
    50    23    33 1   
    51    23    50 1   
    52    26    33 2   
    53    27    51 1   
    54    28    52 1   
    55    29    33 2   
    56    30    53 1   
    57    32    33 1   
@<TRIPOS>SUBSTRUCTURE
     1 RSN         1 TEMP              0 ****  ****    0 ROOT
