@<TRIPOS>MOLECULE
RSN
   55    57     1     0     0
SMALL
No Charge or Current Charge


@<TRIPOS>ATOM
      1 C1         -41.5590   -22.7170   -13.7660 ca         1 RSN      -0.157000
      2 C2         -41.4140   -22.7290   -12.3570 ca         1 RSN      -0.099300
      3 C3         -42.5270   -22.4380   -11.5420 ca         1 RSN      -0.035000
      4 C4         -43.7560   -22.1510   -12.1520 ca         1 RSN       0.087400
      5 C5         -43.8940   -22.1440   -13.5160 ca         1 RSN      -0.104200
      6 C6         -42.7980   -22.4170   -14.3660 ca         1 RSN       0.233000
      7 N6         -42.8720   -22.3880   -15.7370 nv         1 RSN      -1.054000
      8 N          -46.9490   -15.7360   -11.4740 n8         1 RSN      -0.955200
      9 CA         -47.7720   -16.3480   -12.5710 c3         1 RSN       0.116500
     10 C          -48.1490   -17.8600   -12.3240 c          1 RSN       0.575100
     11 O          -47.3700   -18.6460   -11.8030 o          1 RSN      -0.567100
     12 CB         -47.0340   -16.1380   -13.9170 c3         1 RSN      -0.210400
     13 CG         -48.0420   -16.2320   -15.0700 c          1 RSN       0.736000
     14 OD1        -48.6550   -15.2230   -15.3780 o          1 RSN      -0.724500
     15 OD2        -48.2390   -17.3240   -15.5750 o          1 RSN      -0.724500
     16 C7         -45.9730   -22.0000   -15.0190 c5         1 RSN       0.288300
     17 C9         -46.7210   -23.3690   -15.2300 c5         1 RSN       0.092300
     18 C2M        -40.0660   -23.0460   -11.7220 c3         1 RSN       0.216900
     19 C10        -48.1390   -23.0000   -14.7160 c5         1 RSN       0.147300
     20 C11        -48.2710   -21.5620   -15.3040 c5         1 RSN       0.161300
     21 C12        -49.3950   -20.6970   -14.6790 c3         1 RSN       0.201600
     22 C8         -45.8240   -21.6740   -12.5150 cc         1 RSN       0.454700
     23 N3S        -49.4280   -18.2000   -12.6450 ns         1 RSN      -0.622300
     24 N7         -45.2220   -21.8570   -13.7670 na         1 RSN      -0.196600
     25 N9         -44.9480   -21.8550   -11.5070 nd         1 RSN      -0.582100
     26 O1S        -50.0860   -20.0020   -10.9790 o          1 RSN      -0.553500
     27 O2         -46.7860   -23.7810   -16.6150 oh         1 RSN      -0.693000
     28 O2M        -40.0270   -24.4120   -11.3010 oh         1 RSN      -0.653000
     29 O2S        -51.4930   -19.5840   -13.0690 o          1 RSN      -0.553500
     30 O3         -49.1000   -23.9240   -15.2330 oh         1 RSN      -0.685000
     31 O4         -46.9730   -20.9560   -15.0810 os         1 RSN      -0.427000
     32 O5         -49.1840   -20.6270   -13.2530 os         1 RSN      -0.576700
     33 S          -50.1910   -19.6530   -12.4000 s6         1 RSN       1.433500
     34 H1         -40.6980   -22.9360   -14.3920 ha         1 RSN       0.099000
     35 H2         -42.4420   -22.4410   -10.4580 ha         1 RSN       0.147000
     36 H3         -43.5870   -21.8160   -16.1740 hn         1 RSN       0.421000
     37 H4         -42.0130   -22.5050   -16.2700 hn         1 RSN       0.421000
     38 H8         -48.7190   -15.7880   -12.6110 h1         1 RSN       0.097700
     39 H9         -46.2730   -16.9260   -13.9910 hc         1 RSN       0.020700
     40 H10        -46.6150   -15.1240   -13.8890 hc         1 RSN       0.020700
     41 H12        -45.2600   -21.8400   -15.8300 h2         1 RSN       0.076700
     42 H13        -46.2710   -24.1620   -14.6150 h1         1 RSN       0.068700
     43 H14        -39.2650   -22.8490   -12.4460 h1         1 RSN       0.018200
     44 H15        -39.9070   -22.3790   -10.8640 h1         1 RSN       0.018200
     45 H16        -48.1710   -22.9830   -13.6180 h1         1 RSN       0.059700
     46 H17        -48.4400   -21.6080   -16.3890 h1         1 RSN       0.085700
     47 H18        -49.3660   -19.7010   -15.1390 h1         1 RSN       0.080700
     48 H19        -50.3650   -21.1560   -14.9150 h1         1 RSN       0.080700
     49 H20        -46.8770   -21.4420   -12.4070 h5         1 RSN       0.100800
     50 H21        -50.0390   -17.5410   -13.0930 hn         1 RSN       0.357500
     51 H22        -45.8850   -24.0880   -16.8810 ho         1 RSN       0.517000
     52 H23        -39.1380   -24.5600   -10.9110 ho         1 RSN       0.440000
     53 H24        -48.6600   -24.2700   -16.0510 ho         1 RSN       0.516000
     54 H5         -47.4410   -15.8450   -10.5790 hn         1 RSN       0.392000
     55 H6         -46.1060   -16.3100   -11.3460 hn         1 RSN       0.392000
@<TRIPOS>BOND
     1     1     2 ar  
     2     1     6 ar  
     3     1    34 1   
     4     2     3 ar  
     5     2    18 1   
     6     3     4 ar  
     7     3    35 1   
     8     4     5 ar  
     9     4    25 1   
    10     5     6 ar  
    11     5    24 1   
    12     6     7 1   
    13     7    36 1   
    14     7    37 1   
    15     8     9 1   
    16     8    54 1   
    17     8    55 1   
    18     9    10 1   
    19     9    12 1   
    20     9    38 1   
    21    10    11 2   
    22    10    23 1   
    23    12    13 1   
    24    12    39 1   
    25    12    40 1   
    26    13    14 1   
    27    13    15 1   
    28    16    17 1   
    29    16    24 1   
    30    16    31 1   
    31    16    41 1   
    32    17    19 1   
    33    17    27 1   
    34    17    42 1   
    35    18    28 1   
    36    18    43 1   
    37    18    44 1   
    38    19    20 1   
    39    19    30 1   
    40    19    45 1   
    41    20    21 1   
    42    20    31 1   
    43    20    46 1   
    44    21    32 1   
    45    21    47 1   
    46    21    48 1   
    47    22    24 1   
    48    22    25 2   
    49    22    49 1   
    50    23    33 1   
    51    23    50 1   
    52    26    33 2   
    53    27    51 1   
    54    28    52 1   
    55    29    33 2   
    56    30    53 1   
    57    32    33 1   
@<TRIPOS>SUBSTRUCTURE
     1 RSN         1 TEMP              0 ****  ****    0 ROOT
