@<TRIPOS>MOLECULE
RSO
   17    18     1     0     0
SMALL
bcc


@<TRIPOS>ATOM
      1 C1           2.5980    -0.2580     0.1680 ca         1 RSO      -0.122000
      2 C2           2.1670     1.0320    -0.1140 ca         1 RSO      -0.130000
      3 C3           0.8150     1.2900    -0.2900 ca         1 RSO      -0.111000
      4 C4          -0.1220     0.2670    -0.1780 ca         1 RSO      -0.084300
      5 C5           0.3160    -1.0260     0.0980 ca         1 RSO      -0.111000
      6 C6           1.6680    -1.2850     0.2710 ca         1 RSO      -0.130000
      7 C12         -1.5630     0.5830    -0.3470 cx         1 RSO       0.107400
      8 C13         -2.5590     0.2010     0.6570 cx         1 RSO       0.053400
      9 O14         -2.4480    -0.4970    -0.5710 op         1 RSO      -0.385600
     10 HC1          3.6520    -0.4630     0.3000 ha         1 RSO       0.131000
     11 HC2          2.8850     1.8370    -0.2030 ha         1 RSO       0.131500
     12 HC3          0.4860     2.2970    -0.5190 ha         1 RSO       0.136000
     13 HC5         -0.3970    -1.8380     0.1700 ha         1 RSO       0.136000
     14 HC6          1.9970    -2.2940     0.4840 ha         1 RSO       0.131500
     15 H12         -1.7690     1.4730    -0.9400 h1         1 RSO       0.089700
     16 H131        -3.4530     0.8050     0.7820 h1         1 RSO       0.077700
     17 H132        -2.2370    -0.3420     1.5430 h1         1 RSO       0.077700
@<TRIPOS>BOND
     1     1     2 ar  
     2     1     6 ar  
     3     1    10 1   
     4     2     3 ar  
     5     2    11 1   
     6     3     4 ar  
     7     3    12 1   
     8     4     5 ar  
     9     4     7 1   
    10     5     6 ar  
    11     5    13 1   
    12     6    14 1   
    13     7     8 1   
    14     7     9 1   
    15     7    15 1   
    16     8     9 1   
    17     8    16 1   
    18     8    17 1   
@<TRIPOS>SUBSTRUCTURE
     1 RSO         1 TEMP              0 ****  ****    0 ROOT
