@<TRIPOS>MOLECULE
RSO
   17    18     1     0     0
SMALL
No Charge or Current Charge


@<TRIPOS>ATOM
      1 C1           2.6360    -0.2730     0.1380 ca         1 RSO      -0.104000
      2 C2           2.2270     1.0260    -0.2060 ca         1 RSO      -0.112000
      3 C3           0.8590     1.3220    -0.3410 ca         1 RSO      -0.093000
      4 C4          -0.1130     0.3220    -0.1330 ca         1 RSO      -0.084300
      5 C5           0.3070    -0.9820     0.2100 ca         1 RSO      -0.093000
      6 C6           1.6750    -1.2760     0.3460 ca         1 RSO      -0.112000
      7 C12         -1.5750     0.6640    -0.2820 cx         1 RSO       0.130600
      8 C13         -2.6380     0.0840     0.6090 cx         1 RSO       0.076600
      9 O14         -2.4740    -0.3680    -0.7550 op         1 RSO      -0.432000
     10 HC1          3.6940    -0.5020     0.2430 ha         1 RSO       0.113000
     11 HC2          2.9700     1.8040    -0.3680 ha         1 RSO       0.113500
     12 HC3          0.5560     2.3320    -0.6080 ha         1 RSO       0.118000
     13 HC5         -0.4240    -1.7710     0.3690 ha         1 RSO       0.118000
     14 HC6          1.9900    -2.2840     0.6100 ha         1 RSO       0.113500
     15 H12         -1.7600     1.6520    -0.7040 h1         1 RSO       0.089700
     16 H131        -3.5380     0.6670     0.8030 h1         1 RSO       0.077700
     17 H132        -2.3560    -0.6340     1.3780 h1         1 RSO       0.077700
@<TRIPOS>BOND
     1     1     2 ar  
     2     1     6 ar  
     3     1    10 1   
     4     2     3 ar  
     5     2    11 1   
     6     3     4 ar  
     7     3    12 1   
     8     4     5 ar  
     9     4     7 1   
    10     5     6 ar  
    11     5    13 1   
    12     6    14 1   
    13     7     8 1   
    14     7     9 1   
    15     7    15 1   
    16     8     9 1   
    17     8    16 1   
    18     8    17 1   
@<TRIPOS>SUBSTRUCTURE
     1 RSO         1 TEMP              0 ****  ****    0 ROOT
