@<TRIPOS>MOLECULE
RSR
   43    47     1     0     0
SMALL
No Charge or Current Charge


@<TRIPOS>ATOM
      1 C18        -43.4260   -26.7730     0.0170 cy         1 RSR      -0.070900
      2 N1         -43.3780   -30.5970     6.2460 nv         1 RSR      -1.054900
      3 C16        -45.3830   -26.0640     0.3940 cy         1 RSR      -0.070900
      4 C17        -43.9900   -25.3590     0.3660 cy         1 RSR      -0.102400
      5 C15        -45.9080   -28.8770    -0.8320 c          1 RSR       0.721000
      6 C14        -46.2650   -28.9260     1.7300 c5         1 RSR       0.196800
      7 C13        -45.2030   -28.7810     0.5810 c5         1 RSR       0.061000
      8 O2         -45.2160   -28.9320    -1.8420 o          1 RSR      -0.702500
      9 C12        -44.6120   -27.3550     0.8740 cy         1 RSR      -0.093000
     10 C11        -44.4140   -27.5450     2.4040 c5         1 RSR       0.229800
     11 C10        -45.6310   -28.8920     4.1740 ca         1 RSR       0.474900
     12 C9         -48.7590   -27.6360     3.8270 ca         1 RSR      -0.046000
     13 C8         -50.1270   -27.3090     3.9750 ca         1 RSR      -0.169000
     14 C7         -50.8760   -27.8210     5.0620 ca         1 RSR       0.163000
     15 C6         -50.2750   -28.6520     6.0270 ca         1 RSR      -0.184000
     16 C5         -48.9250   -28.9620     5.8460 ca         1 RSR      -0.012200
     17 C4         -48.1710   -28.5020     4.7730 cp         1 RSR      -0.026000
     18 C3         -46.8090   -29.0070     4.9440 cp         1 RSR      -0.275000
     19 C2         -46.7400   -29.7220     6.1420 ca         1 RSR       0.226500
     20 C1         -44.5410   -30.0730     5.8060 ca         1 RSR       0.419900
     21 O1         -47.1290   -28.9420    -0.9090 o          1 RSR      -0.702500
     22 F1         -52.1780   -27.4870     5.1890 f          1 RSR      -0.199000
     23 F2         -44.2240   -29.7940     0.6790 f          1 RSR      -0.281000
     24 N2         -45.6050   -30.2660     6.5980 nb         1 RSR      -0.331000
     25 N3         -48.0450   -29.6970     6.6480 na         1 RSR      -0.342300
     26 N4         -45.5770   -28.3080     2.8960 nh         1 RSR      -0.751300
     27 N5         -44.4810   -29.4290     4.6310 nb         1 RSR      -0.359000
     28 H15        -43.4590   -27.0200    -1.0500 hc         1 RSR       0.063950
     29 H16        -42.4180   -26.9900     0.3870 hc         1 RSR       0.063950
     30 H2         -42.5180   -30.2930     5.7990 hn         1 RSR       0.475500
     31 H1         -43.3170   -30.8910     7.2170 hn         1 RSR       0.475500
     32 H12        -46.1140   -25.6530     1.0990 hc         1 RSR       0.063950
     33 H11        -45.8640   -26.1420    -0.5890 hc         1 RSR       0.063950
     34 H13        -43.6580   -24.9540     1.3290 hc         1 RSR       0.031700
     35 H14        -43.8590   -24.5890    -0.4020 hc         1 RSR       0.031700
     36 H10        -47.1930   -28.3910     1.4940 h1         1 RSR       0.075700
     37 H9         -46.5200   -29.9810     1.9040 h1         1 RSR       0.075700
     38 H8         -43.4810   -28.0900     2.6080 h1         1 RSR       0.053200
     39 H7         -44.3320   -26.5870     2.9360 h1         1 RSR       0.053200
     40 H6         -48.1750   -27.2090     3.0190 ha         1 RSR       0.144000
     41 H5         -50.6060   -26.6490     3.2570 ha         1 RSR       0.132000
     42 H4         -50.8360   -29.0240     6.8790 ha         1 RSR       0.123000
     43 H3         -48.3110   -30.1560     7.5100 hn         1 RSR       0.354000
@<TRIPOS>BOND
     1     1     4 1   
     2     1     9 1   
     3     1    28 1   
     4     1    29 1   
     5     2    20 1   
     6     2    30 1   
     7     2    31 1   
     8     3     4 1   
     9     3     9 1   
    10     3    32 1   
    11     3    33 1   
    12     4    34 1   
    13     4    35 1   
    14     5     7 1   
    15     5     8 1   
    16     5    21 1   
    17     6     7 1   
    18     6    26 1   
    19     6    36 1   
    20     6    37 1   
    21     7     9 1   
    22     7    23 1   
    23     9    10 1   
    24    10    26 1   
    25    10    38 1   
    26    10    39 1   
    27    11    18 ar  
    28    11    26 1   
    29    11    27 ar  
    30    12    13 ar  
    31    12    17 ar  
    32    12    40 1   
    33    13    14 ar  
    34    13    41 1   
    35    14    15 ar  
    36    14    22 1   
    37    15    16 ar  
    38    15    42 1   
    39    16    17 ar  
    40    16    25 1   
    41    17    18 1   
    42    18    19 ar  
    43    19    24 ar  
    44    19    25 1   
    45    20    24 ar  
    46    20    27 ar  
    47    25    43 1   
@<TRIPOS>SUBSTRUCTURE
     1 RSR         1 TEMP              0 ****  ****    0 ROOT
