@<TRIPOS>MOLECULE
RSR
   43    47     1     0     0
SMALL
abcg2


@<TRIPOS>ATOM
      1 C18        -43.3250   -27.5000    -0.1270 cy         1 RSR      -0.070900
      2 N1         -43.2550   -29.6690     6.5230 nv         1 RSR      -1.054900
      3 C16        -44.5690   -25.9200     0.6800 cy         1 RSR      -0.070900
      4 C17        -43.1340   -25.9790     0.1020 cy         1 RSR      -0.102400
      5 C15        -46.5720   -27.8310    -0.7330 c          1 RSR       0.721000
      6 C14        -46.5700   -28.1840     1.8390 c5         1 RSR       0.196800
      7 C13        -45.7950   -28.2660     0.5370 c5         1 RSR       0.061000
      8 O2         -46.2670   -28.4030    -1.8010 o          1 RSR      -0.702500
      9 C12        -44.5260   -27.4670     0.8430 cy         1 RSR      -0.093000
     10 C11        -44.2100   -27.9140     2.2690 c5         1 RSR       0.229800
     11 C10        -45.6500   -28.6200     4.1240 ca         1 RSR       0.474900
     12 C9         -49.1620   -28.0770     3.7260 ca         1 RSR      -0.046000
     13 C8         -50.5390   -28.0820     3.9260 ca         1 RSR      -0.169000
     14 C7         -51.0670   -28.7180     5.0410 ca         1 RSR       0.163000
     15 C6         -50.2880   -29.3450     5.9930 ca         1 RSR      -0.184000
     16 C5         -48.9160   -29.3230     5.7740 ca         1 RSR      -0.012200
     17 C4         -48.3130   -28.7180     4.6330 cp         1 RSR      -0.026000
     18 C3         -46.8730   -28.9050     4.7950 cp         1 RSR      -0.275000
     19 C2         -46.7000   -29.5520     6.0420 ca         1 RSR       0.226500
     20 C1         -44.4790   -29.4300     5.9620 ca         1 RSR       0.419900
     21 O1         -47.4120   -26.9120    -0.5720 o          1 RSR      -0.702500
     22 F1         -52.4180   -28.7120     5.2150 f          1 RSR      -0.199000
     23 F2         -45.3850   -29.6230     0.3820 f          1 RSR      -0.281000
     24 N2         -45.5530   -29.8420     6.6500 nb         1 RSR      -0.331000
     25 N3         -47.9240   -29.8270     6.5860 na         1 RSR      -0.342300
     26 N4         -45.5330   -28.1200     2.8730 nh         1 RSR      -0.751300
     27 N5         -44.4810   -28.8560     4.7550 nb         1 RSR      -0.359000
     28 H15        -43.6440   -27.7260    -1.1440 hc         1 RSR       0.063950
     29 H16        -42.5010   -28.1600     0.1460 hc         1 RSR       0.063950
     30 H2         -42.4790   -29.1470     6.1490 hn         1 RSR       0.475500
     31 H1         -43.2380   -29.8430     7.5150 hn         1 RSR       0.475500
     32 H12        -44.7270   -25.3450     1.5930 hc         1 RSR       0.063950
     33 H11        -45.2990   -25.6130    -0.0650 hc         1 RSR       0.063950
     34 H13        -42.3750   -25.7710     0.8570 hc         1 RSR       0.031700
     35 H14        -42.9330   -25.3680    -0.7770 hc         1 RSR       0.031700
     36 H10        -47.1720   -27.2790     1.8170 h1         1 RSR       0.075700
     37 H9         -47.2140   -29.0510     1.9730 h1         1 RSR       0.075700
     38 H8         -43.6430   -28.8490     2.2690 h1         1 RSR       0.053200
     39 H7         -43.6360   -27.1740     2.8250 h1         1 RSR       0.053200
     40 H6         -48.7790   -27.5590     2.8640 ha         1 RSR       0.144000
     41 H5         -51.2020   -27.5900     3.2280 ha         1 RSR       0.132000
     42 H4         -50.7270   -29.8120     6.8640 ha         1 RSR       0.123000
     43 H3         -48.0610   -30.2450     7.4930 hn         1 RSR       0.354000
@<TRIPOS>BOND
     1     1     4 1   
     2     1     9 1   
     3     1    28 1   
     4     1    29 1   
     5     2    20 1   
     6     2    30 1   
     7     2    31 1   
     8     3     4 1   
     9     3     9 1   
    10     3    32 1   
    11     3    33 1   
    12     4    34 1   
    13     4    35 1   
    14     5     7 1   
    15     5     8 1   
    16     5    21 1   
    17     6     7 1   
    18     6    26 1   
    19     6    36 1   
    20     6    37 1   
    21     7     9 1   
    22     7    23 1   
    23     9    10 1   
    24    10    26 1   
    25    10    38 1   
    26    10    39 1   
    27    11    18 ar  
    28    11    26 1   
    29    11    27 ar  
    30    12    13 ar  
    31    12    17 ar  
    32    12    40 1   
    33    13    14 ar  
    34    13    41 1   
    35    14    15 ar  
    36    14    22 1   
    37    15    16 ar  
    38    15    42 1   
    39    16    17 ar  
    40    16    25 1   
    41    17    18 1   
    42    18    19 ar  
    43    19    24 ar  
    44    19    25 1   
    45    20    24 ar  
    46    20    27 ar  
    47    25    43 1   
@<TRIPOS>SUBSTRUCTURE
     1 RSR         1 TEMP              0 ****  ****    0 ROOT
