@<TRIPOS>MOLECULE
RSS
   66    68     1     0     0
SMALL
abcg2


@<TRIPOS>ATOM
      1 C1          -4.1740    -0.8880     2.3000 c          1 RSS       0.715000
      2 O1          -4.1360     0.3320     2.0600 o          1 RSS      -0.735000
      3 O2          -5.1920    -1.5700     2.5390 o          1 RSS      -0.735000
      4 C2          -2.8460    -1.6740     2.2610 c3         1 RSS      -0.211400
      5 C3          -1.5850    -0.8030     2.3170 c3         1 RSS      -0.116700
      6 C4          -0.4340    -1.6780     1.8590 c          1 RSS       0.595100
      7 O3           0.0360    -2.5770     2.5390 o          1 RSS      -0.624100
      8 N2          -0.0120    -1.4300     0.5950 ns         1 RSS      -0.533900
      9 C5           0.8080    -2.3140    -0.1960 c3         1 RSS       0.033700
     10 C6           2.2790    -1.8870    -0.2960 c          1 RSS       0.596100
     11 O4           3.0430    -2.5170    -1.0130 o          1 RSS      -0.642100
     12 N3           2.6430    -0.8460     0.4630 ns         1 RSS      -0.495900
     13 C7           4.0050    -0.3990     0.6720 c3         1 RSS       0.101000
     14 C8           4.2830     1.0530     0.2840 c3         1 RSS      -0.089400
     15 C9           4.2690     1.3450    -1.2180 c3         1 RSS      -0.067400
     16 C10          2.8910     1.6660    -1.7890 c3         1 RSS      -0.079400
     17 C11          2.8800     1.6370    -3.3140 c3         1 RSS      -0.094400
     18 C12          1.4880     1.7100    -3.9340 c3         1 RSS       0.083600
     19 N4           0.5970     0.7030    -3.3820 na         1 RSS      -0.095700
     20 C13         -1.3650    -0.2180     3.7130 c3         1 RSS      -0.052400
     21 C14         -0.6300     1.1220     3.7520 c3         1 RSS      -0.064700
     22 C15         -0.4460     1.5740     5.1970 c3         1 RSS      -0.084600
     23 C16          0.7130     1.0940     3.0300 c3         1 RSS      -0.084600
     24 C17          0.1890    -2.4990    -1.5950 c3         1 RSS      -0.004200
     25 C18          0.0280    -1.1930    -2.3050 cc         1 RSS      -0.156400
     26 C19          0.9780    -0.5730    -3.0640 cd         1 RSS      -0.154100
     27 C20         -1.0340    -0.2410    -2.1530 ca         1 RSS      -0.107800
     28 C21         -0.6310     0.9360    -2.8250 ca         1 RSS      -0.053200
     29 C22         -2.2640    -0.2570    -1.4800 ca         1 RSS      -0.068000
     30 C23         -1.4260     2.0820    -2.8360 ca         1 RSS      -0.145000
     31 C24         -3.0430     0.8830    -1.4750 ca         1 RSS      -0.112000
     32 C25         -2.6260     2.0400    -2.1510 ca         1 RSS      -0.093000
     33 H21         -2.8560    -2.2610     1.3330 hc         1 RSS       0.032200
     34 H22A        -2.8280    -2.4090     3.0710 hc         1 RSS       0.032200
     35 H3          -1.7330     0.0120     1.6010 hc         1 RSS       0.075700
     36 HN2         -0.4480    -0.6620     0.1080 hn         1 RSS       0.329500
     37 H5           0.8260    -3.2880     0.3020 h1         1 RSS       0.094700
     38 HN3          1.9300    -0.4200     1.0330 hn         1 RSS       0.330500
     39 H71          4.6660    -1.0600     0.1130 h1         1 RSS       0.048700
     40 H72          4.2460    -0.5320     1.7300 h1         1 RSS       0.048700
     41 H81          5.2730     1.2820     0.6850 hc         1 RSS       0.039700
     42 H82          3.5920     1.7220     0.8100 hc         1 RSS       0.039700
     43 H91          4.6880     0.4840    -1.7500 hc         1 RSS       0.034200
     44 H92          4.9450     2.1790    -1.4260 hc         1 RSS       0.034200
     45 H101         2.5610     2.6470    -1.4320 hc         1 RSS       0.054700
     46 H102         2.1720     0.9460    -1.3970 hc         1 RSS       0.054700
     47 H111         3.3850     0.7320    -3.6640 hc         1 RSS       0.042200
     48 H112         3.4630     2.4710    -3.7150 hc         1 RSS       0.042200
     49 H121         1.5540     1.6020    -5.0190 h1         1 RSS       0.049700
     50 H122         1.0450     2.6850    -3.7350 h1         1 RSS       0.049700
     51 H131        -0.8350    -0.9480     4.3330 hc         1 RSS       0.056200
     52 H132        -2.3400    -0.0730     4.1850 hc         1 RSS       0.056200
     53 H14         -1.2660     1.8570     3.2450 hc         1 RSS       0.060700
     54 H151         0.0040     2.5670     5.2490 hc         1 RSS       0.023033
     55 H152        -1.3990     1.6140     5.7280 hc         1 RSS       0.023033
     56 H153         0.2060     0.8850     5.7410 hc         1 RSS       0.023033
     57 H161         1.3570     0.3000     3.4180 hc         1 RSS       0.023033
     58 H162         0.5860     0.9470     1.9550 hc         1 RSS       0.023033
     59 H163         1.2450     2.0380     3.1550 hc         1 RSS       0.023033
     60 H171         0.8260    -3.1720    -2.1680 hc         1 RSS       0.061700
     61 H172        -0.7730    -3.0020    -1.4750 hc         1 RSS       0.061700
     62 H19          1.9370    -0.9580    -3.3760 h4         1 RSS       0.216000
     63 H22         -2.5980    -1.1470    -0.9580 ha         1 RSS       0.135000
     64 H23         -1.1190     2.9820    -3.3540 ha         1 RSS       0.100000
     65 H24         -3.9770     0.8880    -0.9300 ha         1 RSS       0.150000
     66 H25         -3.2550     2.9200    -2.1330 ha         1 RSS       0.106000
@<TRIPOS>BOND
     1     1     2 1   
     2     1     3 1   
     3     1     4 1   
     4     4     5 1   
     5     4    33 1   
     6     4    34 1   
     7     5     6 1   
     8     5    20 1   
     9     5    35 1   
    10     6     7 2   
    11     6     8 1   
    12     8     9 1   
    13     8    36 1   
    14     9    10 1   
    15     9    24 1   
    16     9    37 1   
    17    10    11 2   
    18    10    12 1   
    19    12    13 1   
    20    12    38 1   
    21    13    14 1   
    22    13    39 1   
    23    13    40 1   
    24    14    15 1   
    25    14    41 1   
    26    14    42 1   
    27    15    16 1   
    28    15    43 1   
    29    15    44 1   
    30    16    17 1   
    31    16    45 1   
    32    16    46 1   
    33    17    18 1   
    34    17    47 1   
    35    17    48 1   
    36    18    19 1   
    37    18    49 1   
    38    18    50 1   
    39    19    26 1   
    40    19    28 1   
    41    20    21 1   
    42    20    51 1   
    43    20    52 1   
    44    21    22 1   
    45    21    23 1   
    46    21    53 1   
    47    22    54 1   
    48    22    55 1   
    49    22    56 1   
    50    23    57 1   
    51    23    58 1   
    52    23    59 1   
    53    24    25 1   
    54    24    60 1   
    55    24    61 1   
    56    25    26 2   
    57    25    27 1   
    58    26    62 1   
    59    27    28 ar  
    60    27    29 ar  
    61    28    30 ar  
    62    29    31 ar  
    63    29    63 1   
    64    30    32 ar  
    65    30    64 1   
    66    31    32 ar  
    67    31    65 1   
    68    32    66 1   
@<TRIPOS>SUBSTRUCTURE
     1 RSS         1 TEMP              0 ****  ****    0 ROOT
