@<TRIPOS>MOLECULE
RSS
   66    68     1     0     0
SMALL
No Charge or Current Charge


@<TRIPOS>ATOM
      1 C1          -4.1690    -0.9590     2.6600 c          1 RSS       0.715000
      2 O1          -4.7570    -0.7420     1.6120 o          1 RSS      -0.735000
      3 O2          -4.5330    -0.5270     3.7420 o          1 RSS      -0.735000
      4 C2          -2.8840    -1.8070     2.6030 c3         1 RSS      -0.211400
      5 C3          -1.6240    -0.9430     2.2660 c3         1 RSS      -0.116700
      6 C4          -0.4950    -1.8580     1.7280 c          1 RSS       0.595100
      7 O3           0.0350    -2.7340     2.3960 o          1 RSS      -0.624100
      8 N2          -0.1350    -1.6360     0.4210 ns         1 RSS      -0.533900
      9 C5           0.7020    -2.5410    -0.4070 c3         1 RSS       0.033700
     10 C6           2.2290    -2.2190    -0.3140 c          1 RSS       0.596100
     11 O4           3.0700    -2.8670    -0.9260 o          1 RSS      -0.642100
     12 N3           2.5900    -1.1750     0.5170 ns         1 RSS      -0.495900
     13 C7           3.9670    -0.7800     0.8400 c3         1 RSS       0.101000
     14 C8           4.2440     0.7420     0.7340 c3         1 RSS      -0.089400
     15 C9           4.2600     1.3170    -0.7040 c3         1 RSS      -0.067400
     16 C10          2.8650     1.6450    -1.2810 c3         1 RSS      -0.079400
     17 C11          2.8920     1.9490    -2.8020 c3         1 RSS      -0.094400
     18 C12          1.4890     2.0970    -3.4420 c3         1 RSS       0.083600
     19 N4           0.6140     0.9220    -3.2350 na         1 RSS      -0.095700
     20 C13         -1.1440    -0.0640     3.4640 c3         1 RSS      -0.052400
     21 C14         -0.5220     1.3140     3.0910 c3         1 RSS      -0.064700
     22 C15         -0.1940     2.1270     4.3640 c3         1 RSS      -0.084600
     23 C16          0.7200     1.2120     2.1780 c3         1 RSS      -0.084600
     24 C17          0.1810    -2.5380    -1.8690 c3         1 RSS      -0.004200
     25 C18          0.0440    -1.1460    -2.4310 cc         1 RSS      -0.156400
     26 C19          1.0150    -0.4310    -3.1200 cd         1 RSS      -0.154100
     27 C20         -1.0350    -0.2250    -2.1990 ca         1 RSS      -0.107800
     28 C21         -0.6570     0.9980    -2.6830 ca         1 RSS      -0.053200
     29 C22         -2.2850    -0.4320    -1.5930 ca         1 RSS      -0.068000
     30 C23         -1.5140     2.1090    -2.5930 ca         1 RSS      -0.145000
     31 C24         -3.1560     0.6700    -1.4800 ca         1 RSS      -0.112000
     32 C25         -2.7720     1.9360    -1.9780 ca         1 RSS      -0.093000
     33 H21         -2.9710    -2.5190     1.7730 hc         1 RSS       0.032200
     34 H22A        -2.6900    -2.2890     3.5700 hc         1 RSS       0.032200
     35 H3          -1.9150    -0.2670     1.4520 hc         1 RSS       0.075700
     36 HN2         -0.6150    -0.8830    -0.0610 hn         1 RSS       0.329500
     37 H5           0.5970    -3.5610    -0.0140 h1         1 RSS       0.094700
     38 HN3          1.8260    -0.7050     0.9850 hn         1 RSS       0.330500
     39 H71          4.6730    -1.3140     0.1910 h1         1 RSS       0.048700
     40 H72          4.1680    -1.0990     1.8710 h1         1 RSS       0.048700
     41 H81          5.2340     0.9200     1.1720 hc         1 RSS       0.039700
     42 H82          3.5340     1.3000     1.3550 hc         1 RSS       0.039700
     43 H91          4.7770     0.6080    -1.3630 hc         1 RSS       0.034200
     44 H92          4.8580     2.2370    -0.7110 hc         1 RSS       0.034200
     45 H101         2.4410     2.5030    -0.7450 hc         1 RSS       0.054700
     46 H102         2.1940     0.8050    -1.0880 hc         1 RSS       0.054700
     47 H111         3.4340     1.1510    -3.3230 hc         1 RSS       0.042200
     48 H112         3.4600     2.8720    -2.9740 hc         1 RSS       0.042200
     49 H121         1.5990     2.2600    -4.5220 h1         1 RSS       0.049700
     50 H122         1.0090     2.9860    -3.0170 h1         1 RSS       0.049700
     51 H131        -0.4350    -0.6340     4.0770 hc         1 RSS       0.056200
     52 H132        -1.9980     0.1380     4.1200 hc         1 RSS       0.056200
     53 H14         -1.2830     1.8810     2.5400 hc         1 RSS       0.060700
     54 H151         0.1790     3.1250     4.1030 hc         1 RSS       0.023033
     55 H152        -1.0880     2.2550     4.9860 hc         1 RSS       0.023033
     56 H153         0.5720     1.6200     4.9640 hc         1 RSS       0.023033
     57 H161         1.4650     0.5340     2.6120 hc         1 RSS       0.023033
     58 H162         0.4470     0.8540     1.1800 hc         1 RSS       0.023033
     59 H163         1.1860     2.1960     2.0490 hc         1 RSS       0.023033
     60 H171         0.8450    -3.1410    -2.5010 hc         1 RSS       0.061700
     61 H172        -0.7950    -3.0380    -1.8960 hc         1 RSS       0.061700
     62 H19          2.0050    -0.7580    -3.4230 h4         1 RSS       0.216000
     63 H22         -2.5780    -1.4110    -1.2210 ha         1 RSS       0.135000
     64 H23         -1.2250     3.0800    -2.9860 ha         1 RSS       0.100000
     65 H24         -4.1290     0.5440    -1.0090 ha         1 RSS       0.150000
     66 H25         -3.4520     2.7810    -1.8920 ha         1 RSS       0.106000
@<TRIPOS>BOND
     1     1     2 1   
     2     1     3 1   
     3     1     4 1   
     4     4     5 1   
     5     4    33 1   
     6     4    34 1   
     7     5     6 1   
     8     5    20 1   
     9     5    35 1   
    10     6     7 2   
    11     6     8 1   
    12     8     9 1   
    13     8    36 1   
    14     9    10 1   
    15     9    24 1   
    16     9    37 1   
    17    10    11 2   
    18    10    12 1   
    19    12    13 1   
    20    12    38 1   
    21    13    14 1   
    22    13    39 1   
    23    13    40 1   
    24    14    15 1   
    25    14    41 1   
    26    14    42 1   
    27    15    16 1   
    28    15    43 1   
    29    15    44 1   
    30    16    17 1   
    31    16    45 1   
    32    16    46 1   
    33    17    18 1   
    34    17    47 1   
    35    17    48 1   
    36    18    19 1   
    37    18    49 1   
    38    18    50 1   
    39    19    26 1   
    40    19    28 1   
    41    20    21 1   
    42    20    51 1   
    43    20    52 1   
    44    21    22 1   
    45    21    23 1   
    46    21    53 1   
    47    22    54 1   
    48    22    55 1   
    49    22    56 1   
    50    23    57 1   
    51    23    58 1   
    52    23    59 1   
    53    24    25 1   
    54    24    60 1   
    55    24    61 1   
    56    25    26 2   
    57    25    27 1   
    58    26    62 1   
    59    27    28 ar  
    60    27    29 ar  
    61    28    30 ar  
    62    29    31 ar  
    63    29    63 1   
    64    30    32 ar  
    65    30    64 1   
    66    31    32 ar  
    67    31    65 1   
    68    32    66 1   
@<TRIPOS>SUBSTRUCTURE
     1 RSS         1 TEMP              0 ****  ****    0 ROOT
