@<TRIPOS>MOLECULE
RST
   23    23     1     0     0
SMALL
No Charge or Current Charge


@<TRIPOS>ATOM
      1 C1          20.7290    22.1630    16.5040 c6         1 RST       0.398300
      2 O1          21.2490    20.9040    16.9030 oh         1 RST      -0.661000
      3 C2          19.9380    22.8790    17.6340 c6         1 RST      -0.100400
      4 C3          20.8290    23.4950    18.7490 c6         1 RST       0.179500
      5 N3          21.2490    22.4960    19.7630 n8         1 RST      -0.985200
      6 C4          22.0580    24.2630    18.1490 c6         1 RST       0.150300
      7 O4          22.9640    24.6720    19.2030 oh         1 RST      -0.717000
      8 C5          22.7750    23.3660    17.0890 c6         1 RST       0.145300
      9 O5          21.8350    22.9680    16.0590 os         1 RST      -0.494000
     10 C6          23.9330    24.0950    16.3580 c3         1 RST      -0.094100
     11 H1          20.0470    22.0050    15.6540 h2         1 RST       0.050700
     12 HO1         21.8540    20.6490    16.1770 ho         1 RST       0.449000
     13 H2          19.3550    23.6870    17.1730 hc         1 RST       0.056700
     14 H22         19.1980    22.1920    18.0670 hc         1 RST       0.056700
     15 H3          20.2260    24.2320    19.3000 h1         1 RST       0.022700
     16 HN31        22.0930    22.8890    20.1980 hn         1 RST       0.401500
     17 HN32        20.5650    22.4980    20.5260 hn         1 RST       0.401500
     18 H4          21.6720    25.1540    17.6310 h1         1 RST       0.031700
     19 HO4         23.5370    25.3810    18.8300 ho         1 RST       0.505000
     20 H5          23.1850    22.4710    17.5790 h1         1 RST       0.079700
     21 H61         24.3670    23.4570    15.5790 hc         1 RST       0.041700
     22 H62         23.5850    25.0190    15.8800 hc         1 RST       0.041700
     23 H63         24.7410    24.3560    17.0510 hc         1 RST       0.041700
@<TRIPOS>BOND
     1     1     2 1   
     2     1     3 1   
     3     1     9 1   
     4     1    11 1   
     5     2    12 1   
     6     3     4 1   
     7     3    13 1   
     8     3    14 1   
     9     4     5 1   
    10     4     6 1   
    11     4    15 1   
    12     5    16 1   
    13     5    17 1   
    14     6     7 1   
    15     6     8 1   
    16     6    18 1   
    17     7    19 1   
    18     8     9 1   
    19     8    10 1   
    20     8    20 1   
    21    10    21 1   
    22    10    22 1   
    23    10    23 1   
@<TRIPOS>SUBSTRUCTURE
     1 RST         1 TEMP              0 ****  ****    0 ROOT
