@<TRIPOS>MOLECULE
RST
   23    23     1     0     0
SMALL
abcg2


@<TRIPOS>ATOM
      1 C1          20.7810    22.1950    16.5820 c6         1 RST       0.398300
      2 O1          21.1430    20.9290    17.0440 oh         1 RST      -0.661000
      3 C2          20.0250    22.9440    17.6710 c6         1 RST      -0.100400
      4 C3          20.9110    23.5350    18.7640 c6         1 RST       0.179500
      5 N3          21.4350    22.5020    19.6450 n8         1 RST      -0.985200
      6 C4          22.0550    24.2940    18.0970 c6         1 RST       0.150300
      7 O4          22.9040    24.7850    19.1090 oh         1 RST      -0.717000
      8 C5          22.7960    23.3880    17.1100 c6         1 RST       0.145300
      9 O5          21.8810    22.9320    16.1180 os         1 RST      -0.494000
     10 C6          23.9150    24.1040    16.3790 c3         1 RST      -0.094100
     11 H1          20.1330    22.1070    15.7010 h2         1 RST       0.050700
     12 HO1         21.4850    20.4210    16.3000 ho         1 RST       0.449000
     13 H2          19.4910    23.7670    17.1890 hc         1 RST       0.056700
     14 H22         19.2580    22.2970    18.1030 hc         1 RST       0.056700
     15 H3          20.3000    24.2720    19.3080 h1         1 RST       0.022700
     16 HN31        21.8480    22.9320    20.4620 hn         1 RST       0.401500
     17 HN32        20.6710    21.9330    19.9860 hn         1 RST       0.401500
     18 H4          21.6130    25.1220    17.5210 h1         1 RST       0.031700
     19 HO4         23.4910    25.4470    18.7310 ho         1 RST       0.505000
     20 H5          23.2140    22.5380    17.6620 h1         1 RST       0.079700
     21 H61         24.3780    23.4470    15.6420 hc         1 RST       0.041700
     22 H62         23.5510    24.9940    15.8610 hc         1 RST       0.041700
     23 H63         24.7010    24.4080    17.0700 hc         1 RST       0.041700
@<TRIPOS>BOND
     1     1     2 1   
     2     1     3 1   
     3     1     9 1   
     4     1    11 1   
     5     2    12 1   
     6     3     4 1   
     7     3    13 1   
     8     3    14 1   
     9     4     5 1   
    10     4     6 1   
    11     4    15 1   
    12     5    16 1   
    13     5    17 1   
    14     6     7 1   
    15     6     8 1   
    16     6    18 1   
    17     7    19 1   
    18     8     9 1   
    19     8    10 1   
    20     8    20 1   
    21    10    21 1   
    22    10    22 1   
    23    10    23 1   
@<TRIPOS>SUBSTRUCTURE
     1 RST         1 TEMP              0 ****  ****    0 ROOT
