@<TRIPOS>MOLECULE
RSU
   58    60     1     0     0
SMALL
abcg2


@<TRIPOS>ATOM
      1 C1         -63.5560    22.2700    -3.9000 c3         1 RSU       0.233800
      2 C10        -59.0660    24.4960    -3.8580 c3         1 RSU       0.269500
      3 C11        -59.4230    25.7450    -3.0550 c3         1 RSU       0.132600
      4 C12        -59.5100    23.2040    -3.1690 c3         1 RSU      -0.070400
      5 C13        -59.0780    21.9420    -3.9070 c3         1 RSU      -0.083100
      6 C14        -63.9190    23.3660    -2.8990 c3         1 RSU      -0.105400
      7 C15        -63.6570    22.9300    -1.4530 c3         1 RSU      -0.026100
      8 C16        -64.0150    24.0040    -0.4600 ca         1 RSU      -0.075300
      9 C17        -65.2330    23.9760     0.2210 ca         1 RSU      -0.107000
     10 C18        -65.5820    24.9930     1.1050 ca         1 RSU      -0.112500
     11 C19        -64.7140    26.0580     1.3230 ca         1 RSU      -0.113000
     12 C2         -62.7190    23.4270    -5.9130 ca         1 RSU       0.473900
     13 C20        -63.4950    26.0970     0.6500 ca         1 RSU      -0.112500
     14 C21        -63.1510    25.0790    -0.2320 ca         1 RSU      -0.107000
     15 C3         -60.6160    24.4010    -5.9100 ca         1 RSU       0.443900
     16 C4         -61.8280    24.6110    -7.7770 ca         1 RSU       0.176500
     17 C5         -62.8930    23.8920    -7.2330 ca         1 RSU      -0.143600
     18 C6         -63.4910    24.4120    -9.2100 cc         1 RSU       0.388700
     19 C8         -61.2410    27.1280    -9.6320 c3         1 RSU      -0.107100
     20 C9         -60.2090    24.9620   -10.4720 c3         1 RSU      -0.107100
     21 N1         -63.6630    22.6970    -5.2840 nu         1 RSU      -0.921100
     22 N2         -61.5750    23.7000    -5.2780 nb         1 RSU      -0.324000
     23 N3         -60.6770    24.9010    -7.1620 nb         1 RSU      -0.307000
     24 N4         -63.9270    23.7770    -8.1490 nd         1 RSU      -0.547100
     25 N5         -62.2290    24.9420    -9.0530 na         1 RSU      -0.301300
     26 N6         -59.4270    24.6110    -5.2740 nu         1 RSU      -0.924100
     27 O1         -60.8370    25.8600    -2.8940 oh         1 RSU      -0.651000
     28 H12        -64.2140    21.4090    -3.7700 h1         1 RSU       0.053700
     29 H11        -62.5330    21.9350    -3.7230 h1         1 RSU       0.053700
     30 H101       -57.9710    24.4830    -3.8710 h1         1 RSU       0.042700
     31 H112       -58.9320    25.6750    -2.0770 h1         1 RSU       0.022700
     32 H111       -59.0280    26.6260    -3.5730 h1         1 RSU       0.022700
     33 H122       -60.5880    23.2060    -3.0380 hc         1 RSU       0.055700
     34 H121       -59.0590    23.2190    -2.1720 hc         1 RSU       0.055700
     35 H131       -59.3430    21.0500    -3.3340 hc         1 RSU       0.034367
     36 H133       -59.5680    21.8740    -4.8780 hc         1 RSU       0.034367
     37 H132       -57.9970    21.9280    -4.0700 hc         1 RSU       0.034367
     38 H141       -63.3280    24.2570    -3.1200 hc         1 RSU       0.058700
     39 H142       -64.9720    23.6360    -3.0200 hc         1 RSU       0.058700
     40 H152       -64.2310    22.0250    -1.2360 hc         1 RSU       0.045200
     41 H151       -62.5990    22.6720    -1.3520 hc         1 RSU       0.045200
     42 H171       -65.9130    23.1480     0.0550 ha         1 RSU       0.114000
     43 H181       -66.5320    24.9510     1.6250 ha         1 RSU       0.108500
     44 H191       -64.9830    26.8490     2.0120 ha         1 RSU       0.110000
     45 H201       -62.8120    26.9210     0.8150 ha         1 RSU       0.108500
     46 H211       -62.2040    25.1200    -0.7580 ha         1 RSU       0.114000
     47 H62        -64.0290    24.5340   -10.1370 h5         1 RSU       0.059800
     48 H71        -62.1610    25.7070   -10.9420 h1         1 RSU       0.049700
     49 H82        -62.1800    27.6180    -9.3680 hc         1 RSU       0.050367
     50 H83        -60.5780    27.1560    -8.7670 hc         1 RSU       0.050367
     51 H81        -60.7750    27.6880   -10.4440 hc         1 RSU       0.050367
     52 H92        -60.4290    23.9430   -10.7940 hc         1 RSU       0.050367
     53 H91        -59.7260    25.4890   -11.2950 hc         1 RSU       0.050367
     54 H93        -59.5160    24.9210    -9.6320 hc         1 RSU       0.050367
     55 H13        -64.5430    22.5790    -5.7580 hn         1 RSU       0.510000
     56 H61        -58.8030    25.1910    -5.8120 hn         1 RSU       0.488000
     57 H14        -61.0190    26.6630    -2.3920 ho         1 RSU       0.437000
     58 C7         -61.4920    25.6910   -10.0800 c3         1 RSU       0.109300
@<TRIPOS>BOND
     1     1     6 1   
     2     1    21 1   
     3     1    28 1   
     4     1    29 1   
     5     2     3 1   
     6     2     4 1   
     7     2    26 1   
     8     2    30 1   
     9     3    27 1   
    10     3    31 1   
    11     3    32 1   
    12     4     5 1   
    13     4    33 1   
    14     4    34 1   
    15     5    35 1   
    16     5    36 1   
    17     5    37 1   
    18     6     7 1   
    19     6    38 1   
    20     6    39 1   
    21     7     8 1   
    22     7    40 1   
    23     7    41 1   
    24     8     9 ar  
    25     8    14 ar  
    26     9    10 ar  
    27     9    42 1   
    28    10    11 ar  
    29    10    43 1   
    30    11    13 ar  
    31    11    44 1   
    32    12    17 ar  
    33    12    21 1   
    34    12    22 ar  
    35    13    14 ar  
    36    13    45 1   
    37    14    46 1   
    38    15    22 ar  
    39    15    23 ar  
    40    15    26 1   
    41    16    17 ar  
    42    16    23 ar  
    43    16    25 1   
    44    17    24 1   
    45    18    24 2   
    46    18    25 1   
    47    18    47 1   
    48    19    49 1   
    49    19    50 1   
    50    19    51 1   
    51    19    58 1   
    52    20    52 1   
    53    20    53 1   
    54    20    54 1   
    55    20    58 1   
    56    21    55 1   
    57    25    58 1   
    58    26    56 1   
    59    27    57 1   
    60    48    58 1   
@<TRIPOS>SUBSTRUCTURE
     1 RSU         1 TEMP              0 ****  ****    0 ROOT
