@<TRIPOS>MOLECULE
RSU
   58    60     1     0     0
SMALL
No Charge or Current Charge


@<TRIPOS>ATOM
      1 C1         -63.8130    22.1700    -4.0350 c3         1 RSU       0.233800
      2 C10        -59.1910    24.7170    -3.8180 c3         1 RSU       0.269500
      3 C11        -59.7460    26.0740    -3.2600 c3         1 RSU       0.132600
      4 C12        -59.5900    23.4870    -2.9510 c3         1 RSU      -0.070400
      5 C13        -58.9690    22.1480    -3.4070 c3         1 RSU      -0.083100
      6 C14        -63.9750    23.2640    -2.9590 c3         1 RSU      -0.105400
      7 C15        -63.9050    22.7070    -1.5220 c3         1 RSU      -0.026100
      8 C16        -64.0050    23.8080    -0.4730 ca         1 RSU      -0.075300
      9 C17        -65.2110    24.0260     0.2220 ca         1 RSU      -0.107000
     10 C18        -65.2980    25.0440     1.1880 ca         1 RSU      -0.112500
     11 C19        -64.1800    25.8500     1.4640 ca         1 RSU      -0.113000
     12 C2         -62.7600    23.4610    -5.9960 ca         1 RSU       0.473900
     13 C20        -62.9750    25.6370     0.7730 ca         1 RSU      -0.112500
     14 C21        -62.8880    24.6190    -0.1920 ca         1 RSU      -0.107000
     15 C3         -60.6520    24.3410    -5.9350 ca         1 RSU       0.443900
     16 C4         -61.8310    24.6100    -7.8680 ca         1 RSU       0.176500
     17 C5         -62.8930    23.9400    -7.3150 ca         1 RSU      -0.143600
     18 C6         -63.5470    24.4550    -9.3040 cc         1 RSU       0.388700
     19 C8         -61.1030    27.1130    -9.6480 c3         1 RSU      -0.107100
     20 C9         -60.1670    24.8970   -10.5390 c3         1 RSU      -0.107100
     21 N1         -63.7890    22.7470    -5.3890 nu         1 RSU      -0.921100
     22 N2         -61.6250    23.6580    -5.3060 nb         1 RSU      -0.324000
     23 N3         -60.6850    24.8190    -7.1930 nb         1 RSU      -0.307000
     24 N4         -63.9800    23.8280    -8.1940 nd         1 RSU      -0.547100
     25 N5         -62.2480    24.9370    -9.1310 na         1 RSU      -0.301300
     26 N6         -59.4480    24.5540    -5.2770 nu         1 RSU      -0.924100
     27 O1         -61.1860    26.1410    -3.2400 oh         1 RSU      -0.651000
     28 H12        -64.6530    21.4660    -3.9470 h1         1 RSU       0.053700
     29 H11        -62.8880    21.6030    -3.8510 h1         1 RSU       0.053700
     30 H101       -58.1000    24.7990    -3.7110 h1         1 RSU       0.042700
     31 H112       -59.3590    26.2120    -2.2420 h1         1 RSU       0.022700
     32 H111       -59.3440    26.8930    -3.8690 h1         1 RSU       0.022700
     33 H122       -60.6790    23.3850    -2.9020 hc         1 RSU       0.055700
     34 H121       -59.2660    23.6780    -1.9210 hc         1 RSU       0.055700
     35 H131       -59.2420    21.3450    -2.7120 hc         1 RSU       0.034367
     36 H133       -59.3260    21.8670    -4.4050 hc         1 RSU       0.034367
     37 H132       -57.8750    22.2180    -3.4380 hc         1 RSU       0.034367
     38 H141       -63.1900    24.0190    -3.0810 hc         1 RSU       0.058700
     39 H142       -64.9340    23.7760    -3.1040 hc         1 RSU       0.058700
     40 H152       -64.7050    21.9700    -1.3810 hc         1 RSU       0.045200
     41 H151       -62.9610    22.1630    -1.3940 hc         1 RSU       0.045200
     42 H171       -66.0820    23.4090     0.0130 ha         1 RSU       0.114000
     43 H181       -66.2320    25.2090     1.7210 ha         1 RSU       0.108500
     44 H191       -64.2480    26.6380     2.2110 ha         1 RSU       0.110000
     45 H201       -62.1100    26.2610     0.9850 ha         1 RSU       0.108500
     46 H211       -61.9530    24.4630    -0.7250 ha         1 RSU       0.114000
     47 H62        -64.1010    24.5880   -10.2260 h5         1 RSU       0.059800
     48 H71        -62.0480    25.7780   -11.0150 h1         1 RSU       0.049700
     49 H82        -62.0220    27.6490    -9.3840 hc         1 RSU       0.050367
     50 H83        -60.4430    27.1080    -8.7730 hc         1 RSU       0.050367
     51 H81        -60.6030    27.6710   -10.4480 hc         1 RSU       0.050367
     52 H92        -60.4360    23.8950   -10.8930 hc         1 RSU       0.050367
     53 H91        -59.6510    25.4170   -11.3540 hc         1 RSU       0.050367
     54 H93        -59.4640    24.7900    -9.7050 hc         1 RSU       0.050367
     55 H13        -64.6110    22.6300    -5.9820 hn         1 RSU       0.510000
     56 H61        -58.7490    24.9750    -5.8870 hn         1 RSU       0.488000
     57 H14        -61.4270    27.0450    -2.9440 ho         1 RSU       0.437000
     58 C7         -61.4290    25.6770   -10.1130 c3         1 RSU       0.109300
@<TRIPOS>BOND
     1     1     6 1   
     2     1    21 1   
     3     1    28 1   
     4     1    29 1   
     5     2     3 1   
     6     2     4 1   
     7     2    26 1   
     8     2    30 1   
     9     3    27 1   
    10     3    31 1   
    11     3    32 1   
    12     4     5 1   
    13     4    33 1   
    14     4    34 1   
    15     5    35 1   
    16     5    36 1   
    17     5    37 1   
    18     6     7 1   
    19     6    38 1   
    20     6    39 1   
    21     7     8 1   
    22     7    40 1   
    23     7    41 1   
    24     8     9 ar  
    25     8    14 ar  
    26     9    10 ar  
    27     9    42 1   
    28    10    11 ar  
    29    10    43 1   
    30    11    13 ar  
    31    11    44 1   
    32    12    17 ar  
    33    12    21 1   
    34    12    22 ar  
    35    13    14 ar  
    36    13    45 1   
    37    14    46 1   
    38    15    22 ar  
    39    15    23 ar  
    40    15    26 1   
    41    16    17 ar  
    42    16    23 ar  
    43    16    25 1   
    44    17    24 1   
    45    18    24 2   
    46    18    25 1   
    47    18    47 1   
    48    19    49 1   
    49    19    50 1   
    50    19    51 1   
    51    19    58 1   
    52    20    52 1   
    53    20    53 1   
    54    20    54 1   
    55    20    58 1   
    56    21    55 1   
    57    25    58 1   
    58    26    56 1   
    59    27    57 1   
    60    48    58 1   
@<TRIPOS>SUBSTRUCTURE
     1 RSU         1 TEMP              0 ****  ****    0 ROOT
