@<TRIPOS>MOLECULE
RSV
   26    28     1     0     0
SMALL
No Charge or Current Charge


@<TRIPOS>ATOM
      1 C4          -2.0740    -0.7010     0.0520 ca         1 RSV       0.328000
      2 C5          -1.4970     0.5930     0.0280 ca         1 RSV      -0.130000
      3 C6          -0.0980     0.7580     0.0030 ca         1 RSV      -0.062000
      4 C7           2.2430    -0.2170    -0.0260 cc         1 RSV      -0.050000
      5 C8           3.2110    -1.2630    -0.0320 cc         1 RSV      -0.120000
      6 C10          2.8280     1.0310    -0.0490 cd         1 RSV      -0.242000
      7 N12         -3.4150    -0.8900     0.0770 nb         1 RSV      -0.761000
      8 C13         -4.1850     0.1880     0.0810 ca         1 RSV       0.619900
      9 C15         -2.3400     1.7210     0.0290 ca         1 RSV      -0.027000
     10 C14         -3.7250     1.5060     0.0550 ca         1 RSV      -0.212000
     11 N16         -5.4750    -0.1480     0.0980 nv         1 RSV      -1.071900
     12 C3          -1.2130    -1.8090     0.0500 ca         1 RSV      -0.106000
     13 C2           0.1840    -1.6450     0.0240 ca         1 RSV      -0.079000
     14 C1           0.7700    -0.3600     0.0000 ca         1 RSV      -0.032000
     15 C11          4.5100    -0.8310    -0.0580 cd         1 RSV      -0.247000
     16 S9           4.5980     0.9340    -0.0780 ss         1 RSV       0.206000
     17 H6           0.2940     1.7690    -0.0150 ha         1 RSV       0.112000
     18 H8           2.9480    -2.3150    -0.0170 ha         1 RSV       0.135000
     19 H10          2.3700     2.0100    -0.0510 h4         1 RSV       0.150000
     20 H15         -1.9360     2.7310     0.0110 ha         1 RSV       0.116000
     21 H14         -4.4200     2.3390     0.0580 ha         1 RSV       0.119000
     22 HN16        -5.6530    -1.1190    -0.1290 hn         1 RSV       0.480000
     23 HN1A        -6.1390     0.5280    -0.2650 hn         1 RSV       0.480000
     24 H3          -1.6330    -2.8100     0.0680 ha         1 RSV       0.129000
     25 H2           0.7990    -2.5390     0.0230 ha         1 RSV       0.115000
     26 H11          5.4170    -1.4230    -0.0680 h4         1 RSV       0.150000
@<TRIPOS>BOND
     1     1     2 ar  
     2     1     7 ar  
     3     1    12 ar  
     4     2     3 ar  
     5     2     9 ar  
     6     3    14 ar  
     7     3    17 1   
     8     4     5 1   
     9     4     6 2   
    10     4    14 1   
    11     5    15 2   
    12     5    18 1   
    13     6    16 1   
    14     6    19 1   
    15     7     8 ar  
    16     8    10 ar  
    17     8    11 1   
    18     9    10 ar  
    19     9    20 1   
    20    10    21 1   
    21    11    22 1   
    22    11    23 1   
    23    12    13 ar  
    24    12    24 1   
    25    13    14 ar  
    26    13    25 1   
    27    15    16 1   
    28    15    26 1   
@<TRIPOS>SUBSTRUCTURE
     1 RSV         1 TEMP              0 ****  ****    0 ROOT
