@<TRIPOS>MOLECULE
RSV
   26    28     1     0     0
SMALL
bcc


@<TRIPOS>ATOM
      1 C4          -2.0320    -0.6950     0.1350 ca         1 RSV       0.458600
      2 C5          -1.4640     0.5860    -0.0600 ca         1 RSV      -0.195300
      3 C6          -0.0690     0.7460    -0.0940 ca         1 RSV      -0.080000
      4 C7           2.2390    -0.1710     0.0580 cc         1 RSV      -0.050000
      5 C8           3.1520    -1.1760    -0.3910 cc         1 RSV      -0.138000
      6 C10          2.9010     0.9500     0.4800 cd         1 RSV      -0.115100
      7 N12         -3.3670    -0.9110     0.1720 nb         1 RSV      -0.761000
      8 C13         -4.1770     0.1110     0.0240 ca         1 RSV       0.685200
      9 C15         -2.3690     1.6690    -0.2250 ca         1 RSV      -0.045000
     10 C14         -3.7050     1.4470    -0.1820 ca         1 RSV      -0.295300
     11 N16         -5.5120    -0.1090     0.1060 nv         1 RSV      -0.961500
     12 C3          -1.1530    -1.7890     0.2890 ca         1 RSV      -0.189300
     13 C2           0.2040    -1.6090     0.2570 ca         1 RSV      -0.097000
     14 C1           0.7790    -0.3300     0.0680 ca         1 RSV      -0.032000
     15 C11          4.4530    -0.7910    -0.3050 cd         1 RSV      -0.120100
     16 S9           4.5980     0.7940     0.3280 ss         1 RSV      -0.083800
     17 H6           0.3330     1.7380    -0.2670 ha         1 RSV       0.130000
     18 H8           2.8490    -2.1360    -0.7830 ha         1 RSV       0.153000
     19 H10          2.4760     1.8510     0.8950 h4         1 RSV       0.168000
     20 H15         -1.9840     2.6700    -0.3840 ha         1 RSV       0.134000
     21 H14         -4.4130     2.2570    -0.3000 ha         1 RSV       0.137000
     22 HN16        -5.8340    -1.0600     0.0420 hn         1 RSV       0.424800
     23 HN1A        -6.1460     0.5890    -0.2430 hn         1 RSV       0.424800
     24 H3          -1.5720    -2.7760     0.4430 ha         1 RSV       0.147000
     25 H2           0.8510    -2.4660     0.3950 ha         1 RSV       0.133000
     26 H11          5.3300    -1.3520    -0.5870 h4         1 RSV       0.168000
@<TRIPOS>BOND
     1     1     2 ar  
     2     1     7 ar  
     3     1    12 ar  
     4     2     3 ar  
     5     2     9 ar  
     6     3    14 ar  
     7     3    17 1   
     8     4     5 1   
     9     4     6 2   
    10     4    14 1   
    11     5    15 2   
    12     5    18 1   
    13     6    16 1   
    14     6    19 1   
    15     7     8 ar  
    16     8    10 ar  
    17     8    11 1   
    18     9    10 ar  
    19     9    20 1   
    20    10    21 1   
    21    11    22 1   
    22    11    23 1   
    23    12    13 ar  
    24    12    24 1   
    25    13    14 ar  
    26    13    25 1   
    27    15    16 1   
    28    15    26 1   
@<TRIPOS>SUBSTRUCTURE
     1 RSV         1 TEMP              0 ****  ****    0 ROOT
