@<TRIPOS>MOLECULE
RSX
   30    31     1     0     0
SMALL
No Charge or Current Charge


@<TRIPOS>ATOM
      1 O1           2.2480     1.5840     1.3080 o          1 RSX      -0.971167
      2 P1           1.9010     1.1890    -0.0900 p5         1 RSX       1.360500
      3 O3           1.4000     2.4090    -0.7920 o          1 RSX      -0.971167
      4 O2           3.1030     0.6880    -0.8190 o          1 RSX      -0.971167
      5 C3           0.5240    -0.0400    -0.0520 c5         1 RSX      -0.655000
      6 P2           1.2770    -1.6810     0.2740 p5         1 RSX       1.360500
      7 O5           1.9890    -2.1720    -0.9440 o          1 RSX      -0.971167
      8 O4           2.1810    -1.6400     1.4610 o          1 RSX      -0.971167
      9 O6           0.1620    -2.6360     0.5540 o          1 RSX      -0.971167
     10 C4          -0.2830    -0.0480    -1.4070 c5         1 RSX       0.031600
     11 C5          -1.6420     0.7200    -1.1320 c5         1 RSX       0.179500
     12 C2          -0.5830     0.2960     1.0130 c5         1 RSX       0.009600
     13 C1          -1.4480     1.3660     0.2830 c5         1 RSX      -0.095700
     14 C9          -2.7590     1.8190     0.9850 c6         1 RSX      -0.045400
     15 C8          -3.8600     0.7410     0.8920 c6         1 RSX      -0.067400
     16 C7          -4.0240     0.2690    -0.5720 c6         1 RSX       0.190800
     17 N1          -2.7640    -0.2770    -1.1040 n7         1 RSX      -0.818400
     18 H4           0.2770     0.4270    -2.2210 hc         1 RSX       0.014700
     19 H4A         -0.4790    -1.0670    -1.7630 hc         1 RSX       0.014700
     20 H5          -1.8540     1.4790    -1.8970 h1         1 RSX      -0.054300
     21 H2          -1.1970    -0.5740     1.2710 hc         1 RSX       0.023700
     22 H2A         -0.1750     0.6680     1.9590 hc         1 RSX       0.023700
     23 H1          -0.8850     2.2970     0.1910 hc         1 RSX       0.108700
     24 H9          -2.5610     2.0730     2.0350 hc         1 RSX      -0.018300
     25 H9A         -3.1210     2.7390     0.5060 hc         1 RSX      -0.018300
     26 H8          -3.6120    -0.1120     1.5380 hc         1 RSX       0.006200
     27 H8A         -4.8110     1.1470     1.2620 hc         1 RSX       0.006200
     28 H7          -4.7940    -0.5130    -0.6240 h1         1 RSX      -0.049800
     29 H7A         -4.3490     1.1050    -1.2080 h1         1 RSX      -0.049800
     30 HN1         -2.9270    -0.6160    -2.0550 hn         1 RSX       0.368000
@<TRIPOS>BOND
     1     1     2 1   
     2     2     3 1   
     3     2     4 1   
     4     2     5 1   
     5     5     6 1   
     6     5    10 1   
     7     5    12 1   
     8     6     7 1   
     9     6     8 1   
    10     6     9 1   
    11    10    11 1   
    12    10    18 1   
    13    10    19 1   
    14    11    13 1   
    15    11    17 1   
    16    11    20 1   
    17    12    13 1   
    18    12    21 1   
    19    12    22 1   
    20    13    14 1   
    21    13    23 1   
    22    14    15 1   
    23    14    24 1   
    24    14    25 1   
    25    15    16 1   
    26    15    26 1   
    27    15    27 1   
    28    16    17 1   
    29    16    28 1   
    30    16    29 1   
    31    17    30 1   
@<TRIPOS>SUBSTRUCTURE
     1 RSX         1 TEMP              0 ****  ****    0 ROOT
