@<TRIPOS>MOLECULE
RSX
   30    31     1     0     0
SMALL
abcg2


@<TRIPOS>ATOM
      1 O1           2.3030     1.5550     1.3750 o          1 RSX      -0.971167
      2 P1           1.8940     1.2530    -0.0800 p5         1 RSX       1.360500
      3 O3           1.2880     2.5110    -0.7560 o          1 RSX      -0.971167
      4 O2           3.0430     0.6800    -0.9250 o          1 RSX      -0.971167
      5 C3           0.5220    -0.0260    -0.0360 c5         1 RSX      -0.655000
      6 P2           1.1230    -1.7670     0.2730 p5         1 RSX       1.360500
      7 O5           1.7800    -2.2710    -1.0260 o          1 RSX      -0.971167
      8 O4           2.0880    -1.7200     1.4700 o          1 RSX      -0.971167
      9 O6          -0.1430    -2.5910     0.6040 o          1 RSX      -0.971167
     10 C4          -0.2740     0.0190    -1.3690 c5         1 RSX       0.031600
     11 C5          -1.6190     0.7150    -1.0940 c5         1 RSX       0.179500
     12 C2          -0.5330     0.3910     1.0060 c5         1 RSX       0.009600
     13 C1          -1.4390     1.3780     0.2750 c5         1 RSX      -0.095700
     14 C9          -2.7490     1.7690     0.9550 c6         1 RSX      -0.045400
     15 C8          -3.8150     0.6840     0.8640 c6         1 RSX      -0.067400
     16 C7          -3.9540     0.2380    -0.5830 c6         1 RSX       0.190800
     17 N1          -2.6830    -0.2800    -1.0390 n7         1 RSX      -0.818400
     18 H4           0.2770     0.5480    -2.1480 hc         1 RSX       0.014700
     19 H4A         -0.4680    -0.9840    -1.7560 hc         1 RSX       0.014700
     20 H5          -1.8420     1.4830    -1.8590 h1         1 RSX      -0.054300
     21 H2          -1.1070    -0.4850     1.3180 hc         1 RSX       0.023700
     22 H2A         -0.0770     0.8330     1.8950 hc         1 RSX       0.023700
     23 H1          -0.8490     2.2800     0.1030 hc         1 RSX       0.108700
     24 H9          -2.5630     2.0420     1.9990 hc         1 RSX      -0.018300
     25 H9A         -3.1420     2.6730     0.4740 hc         1 RSX      -0.018300
     26 H8          -3.5370    -0.1800     1.4740 hc         1 RSX       0.006200
     27 H8A         -4.7730     1.0510     1.2420 hc         1 RSX       0.006200
     28 H7          -4.7070    -0.5490    -0.6700 h1         1 RSX      -0.049800
     29 H7A         -4.3220     1.0920    -1.1830 h1         1 RSX      -0.049800
     30 HN1         -2.7870    -0.7030    -1.9530 hn         1 RSX       0.368000
@<TRIPOS>BOND
     1     1     2 1   
     2     2     3 1   
     3     2     4 1   
     4     2     5 1   
     5     5     6 1   
     6     5    10 1   
     7     5    12 1   
     8     6     7 1   
     9     6     8 1   
    10     6     9 1   
    11    10    11 1   
    12    10    18 1   
    13    10    19 1   
    14    11    13 1   
    15    11    17 1   
    16    11    20 1   
    17    12    13 1   
    18    12    21 1   
    19    12    22 1   
    20    13    14 1   
    21    13    23 1   
    22    14    15 1   
    23    14    24 1   
    24    14    25 1   
    25    15    16 1   
    26    15    26 1   
    27    15    27 1   
    28    16    17 1   
    29    16    28 1   
    30    16    29 1   
    31    17    30 1   
@<TRIPOS>SUBSTRUCTURE
     1 RSX         1 TEMP              0 ****  ****    0 ROOT
