@<TRIPOS>MOLECULE
RSY
   87    88     1     0     0
SMALL
No Charge or Current Charge


@<TRIPOS>ATOM
      1 C39         -3.5580    -3.9660    -1.1870 ca         1 RSY       0.287500
      2 C43         -3.7930    -4.4640    -3.4620 ca         1 RSY       0.337900
      3 C42         -3.7350    -5.8450    -3.2150 ca         1 RSY      -0.146000
      4 C37         -3.4620    -2.9230    -0.0660 c          1 RSY       0.510600
      5 C41         -3.5810    -6.2980    -1.8960 ca         1 RSY      -0.083000
      6 C40         -3.4930    -5.3420    -0.8710 ca         1 RSY      -0.105000
      7 O38         -3.3210    -3.2140     1.1190 o          1 RSY      -0.614100
      8 N44         -3.7080    -3.5380    -2.4790 nb         1 RSY      -0.669000
      9 N36         -3.5380    -1.6070    -0.4810 ns         1 RSY      -0.472900
     10 C32         -3.4900    -0.4110     0.3940 c3         1 RSY       0.033700
     11 C33         -4.9200     0.0870     0.7850 c3         1 RSY      -0.065700
     12 C34         -5.7630     0.5250    -0.4380 c3         1 RSY      -0.090600
     13 C35         -5.6920    -0.9330     1.6540 c3         1 RSY      -0.090600
     14 C30         -2.6450     0.7100    -0.2800 c          1 RSY       0.589100
     15 O31         -2.2670     0.6560    -1.4450 o          1 RSY      -0.600100
     16 N29         -2.3490     1.7850     0.5340 ns         1 RSY      -0.507900
     17 C21         -1.7160     3.0370     0.0790 c3         1 RSY       0.079700
     18 C22         -2.4760     4.2540     0.6630 c3         1 RSY      -0.045100
     19 C23         -3.9780     4.1960     0.3930 ca         1 RSY      -0.081300
     20 C28         -4.4700     4.3650    -0.9160 ca         1 RSY      -0.107000
     21 C24         -4.8840     3.9560     1.4460 ca         1 RSY      -0.107000
     22 C27         -5.8510     4.2950    -1.1700 ca         1 RSY      -0.107500
     23 C25         -6.2650     3.8840     1.1910 ca         1 RSY      -0.107500
     24 C26         -6.7490     4.0530    -0.1170 ca         1 RSY      -0.110000
     25 C19         -0.1810     3.0810     0.3620 c3         1 RSY       0.166300
     26 O20          0.0700     2.9060     1.7630 oh         1 RSY      -0.647000
     27 C18          0.6130     2.0080    -0.4110 c3         1 RSY      -0.193400
     28 C16          2.1110     2.2910    -0.3590 c          1 RSY       0.617100
     29 O17          2.6270     3.1920    -1.0050 o          1 RSY      -0.598100
     30 C10          4.9210     0.0640     0.6440 c          1 RSY       0.588100
     31 N15          2.8470     1.4240     0.4170 ns         1 RSY      -0.494900
     32 C12          4.3170     1.4920     0.6220 c3         1 RSY       0.026700
     33 C13          4.6790     2.2380     1.9300 c3         1 RSY       0.103600
     34 N09          6.2870     0.0030     0.4550 ns         1 RSY      -0.476900
     35 C05          7.0980    -1.2390     0.4290 c3         1 RSY       0.028700
     36 C06          8.3630    -1.0690     1.3240 c          1 RSY       0.591100
     37 O07          8.6730    -0.0210     1.8720 o          1 RSY      -0.606100
     38 C04          7.4650    -1.6410    -1.0310 c3         1 RSY      -0.084400
     39 C02          6.2700    -1.9970    -1.9600 c3         1 RSY      -0.059700
     40 C01          6.7330    -2.1270    -3.4290 c3         1 RSY      -0.091100
     41 C03          5.5300    -3.2810    -1.5120 c3         1 RSY      -0.091100
     42 N08          9.1470    -2.1600     1.4830 nt         1 RSY      -0.603000
     43 H43         -3.9120    -4.0870    -4.4770 h4         1 RSY       0.024100
     44 H42         -3.8080    -6.5480    -4.0410 ha         1 RSY       0.126000
     45 H41         -3.5330    -7.3630    -1.6730 ha         1 RSY       0.124000
     46 H40         -3.3740    -5.6600     0.1610 ha         1 RSY       0.149000
     47 HN36        -3.6100    -1.4740    -1.4860 hn         1 RSY       0.360500
     48 H32         -2.9540    -0.6750     1.3150 h1         1 RSY       0.085700
     49 H33         -4.7930     0.9770     1.4130 hc         1 RSY       0.045700
     50 H34         -5.9580    -0.3200    -1.1080 hc         1 RSY       0.040700
     51 H34A        -6.7290     0.9300    -0.1140 hc         1 RSY       0.040700
     52 H34B        -5.2510     1.3080    -1.0100 hc         1 RSY       0.040700
     53 H35         -5.0980    -1.2280     2.5280 hc         1 RSY       0.040700
     54 H35A        -6.6310    -0.4980     2.0160 hc         1 RSY       0.040700
     55 H35B        -5.9370    -1.8360     1.0820 hc         1 RSY       0.040700
     56 HN29        -2.7460     1.7640     1.4660 hn         1 RSY       0.314500
     57 H21         -1.8390     3.0960    -1.0120 h1         1 RSY       0.086700
     58 H22         -2.2890     4.3160     1.7420 hc         1 RSY       0.064200
     59 H22A        -2.0610     5.1740     0.2330 hc         1 RSY       0.064200
     60 H28         -3.7820     4.5500    -1.7380 ha         1 RSY       0.110000
     61 H24         -4.5210     3.8210     2.4620 ha         1 RSY       0.110000
     62 H27         -6.2240     4.4250    -2.1840 ha         1 RSY       0.113000
     63 H25         -6.9590     3.6950     2.0070 ha         1 RSY       0.113000
     64 H26         -7.8170     3.9960    -0.3140 ha         1 RSY       0.113000
     65 H19          0.1830     4.0680     0.0350 h1         1 RSY       0.097700
     66 HO20        -0.4500     2.1250     2.0480 ho         1 RSY       0.439000
     67 H18          0.3030     2.0410    -1.4620 hc         1 RSY       0.075700
     68 H18A         0.3930     1.0190     0.0070 hc         1 RSY       0.075700
     69 HN15         2.3340     0.6800     0.8770 hn         1 RSY       0.330500
     70 H12          4.7780     2.0170    -0.2250 h1         1 RSY       0.102700
     71 H13          4.2040     1.7500     2.7900 h1         1 RSY       0.084200
     72 H13A         5.7660     2.2380     2.0850 h1         1 RSY       0.084200
     73 HN09         6.7750     0.8850     0.3440 hn         1 RSY       0.325500
     74 H05          6.5230    -2.0540     0.8870 h1         1 RSY       0.083700
     75 H04          8.1490    -2.4980    -1.0140 hc         1 RSY       0.052200
     76 H04A         8.0290    -0.8130    -1.4780 hc         1 RSY       0.052200
     77 H02          5.5500    -1.1700    -1.9280 hc         1 RSY       0.051700
     78 H01          5.8820    -2.3360    -4.0880 hc         1 RSY       0.036367
     79 H01A         7.2030    -1.1970    -3.7720 hc         1 RSY       0.036367
     80 H01B         7.4610    -2.9410    -3.5400 hc         1 RSY       0.036367
     81 H03          6.2080    -4.1430    -1.5160 hc         1 RSY       0.036367
     82 H03A         5.1180    -3.1750    -0.5020 hc         1 RSY       0.036367
     83 H03B         4.6950    -3.5010    -2.1870 hc         1 RSY       0.036367
     84 HN08         8.9010    -3.0330     1.0390 hn         1 RSY       0.316000
     85 HN0A         9.9770    -2.0920     2.0530 hn         1 RSY       0.316000
     86 O11          4.2440    -0.9410     0.8190 o          1 RSY      -0.597100
     87 Cl14         4.1440     3.9790     1.9190 cl         1 RSY      -0.263000
@<TRIPOS>BOND
     1     1     4 1   
     2     1     6 ar  
     3     1     8 ar  
     4     2     3 ar  
     5     2     8 ar  
     6     2    43 1   
     7     3     5 ar  
     8     3    44 1   
     9     4     7 2   
    10     4     9 1   
    11     5     6 ar  
    12     5    45 1   
    13     6    46 1   
    14     9    10 1   
    15     9    47 1   
    16    10    11 1   
    17    10    14 1   
    18    10    48 1   
    19    11    12 1   
    20    11    13 1   
    21    11    49 1   
    22    12    50 1   
    23    12    51 1   
    24    12    52 1   
    25    13    53 1   
    26    13    54 1   
    27    13    55 1   
    28    14    15 2   
    29    14    16 1   
    30    16    17 1   
    31    16    56 1   
    32    17    18 1   
    33    17    25 1   
    34    17    57 1   
    35    18    19 1   
    36    18    58 1   
    37    18    59 1   
    38    19    20 ar  
    39    19    21 ar  
    40    20    22 ar  
    41    20    60 1   
    42    21    23 ar  
    43    21    61 1   
    44    22    24 ar  
    45    22    62 1   
    46    23    24 ar  
    47    23    63 1   
    48    24    64 1   
    49    25    26 1   
    50    25    27 1   
    51    25    65 1   
    52    26    66 1   
    53    27    28 1   
    54    27    67 1   
    55    27    68 1   
    56    28    29 2   
    57    28    31 1   
    58    30    32 1   
    59    30    34 1   
    60    30    86 2   
    61    31    32 1   
    62    31    69 1   
    63    32    33 1   
    64    32    70 1   
    65    33    71 1   
    66    33    72 1   
    67    33    87 1   
    68    34    35 1   
    69    34    73 1   
    70    35    36 1   
    71    35    38 1   
    72    35    74 1   
    73    36    37 2   
    74    36    42 1   
    75    38    39 1   
    76    38    75 1   
    77    38    76 1   
    78    39    40 1   
    79    39    41 1   
    80    39    77 1   
    81    40    78 1   
    82    40    79 1   
    83    40    80 1   
    84    41    81 1   
    85    41    82 1   
    86    41    83 1   
    87    42    84 1   
    88    42    85 1   
@<TRIPOS>SUBSTRUCTURE
     1 RSY         1 TEMP              0 ****  ****    0 ROOT
