@<TRIPOS>MOLECULE
RSY
   87    88     1     0     0
SMALL
bcc


@<TRIPOS>ATOM
      1 C39         -3.7110    -3.9560     0.2020 ca         1 RSY       0.352800
      2 C43         -3.9510    -4.9520    -1.8350 ca         1 RSY       0.403200
      3 C42         -3.8280    -6.2210    -1.2860 ca         1 RSY      -0.229300
      4 C37         -3.6480    -2.6830     1.0010 c          1 RSY       0.577600
      5 C41         -3.6360    -6.3330     0.0810 ca         1 RSY      -0.101000
      6 C40         -3.5760    -5.1770     0.8460 ca         1 RSY      -0.188300
      7 O38         -3.4520    -2.7050     2.2070 o          1 RSY      -0.614100
      8 N44         -3.8950    -3.8460    -1.1090 nb         1 RSY      -0.669000
      9 N36         -3.8240    -1.5750     0.2730 ns         1 RSY      -0.539900
     10 C32         -3.7710    -0.2400     0.8040 c3         1 RSY       0.033700
     11 C33         -5.1700     0.4010     0.9450 c3         1 RSY      -0.065700
     12 C34         -5.8390     0.6410    -0.4030 c3         1 RSY      -0.090600
     13 C35         -6.0580    -0.4350     1.8590 c3         1 RSY      -0.090600
     14 C30         -2.8740     0.6110    -0.0920 c          1 RSY       0.656100
     15 O31         -2.5900     0.2700    -1.2300 o          1 RSY      -0.600100
     16 N29         -2.4560     1.7580     0.4700 ns         1 RSY      -0.574900
     17 C21         -1.7400     2.7980    -0.2400 c3         1 RSY       0.079700
     18 C22         -2.4020     4.1560     0.0160 c3         1 RSY      -0.045100
     19 C23         -3.8430     4.1830    -0.4080 ca         1 RSY      -0.081300
     20 C28         -4.1820     4.2440    -1.7590 ca         1 RSY      -0.125000
     21 C24         -4.8690     4.1270     0.5300 ca         1 RSY      -0.125000
     22 C27         -5.5100     4.2530    -2.1610 ca         1 RSY      -0.125500
     23 C25         -6.2010     4.1330     0.1330 ca         1 RSY      -0.125500
     24 C26         -6.5260     4.1980    -1.2140 ca         1 RSY      -0.128000
     25 C19         -0.2530     2.8220     0.1410 c3         1 RSY       0.143100
     26 O20         -0.0630     3.0790     1.5130 oh         1 RSY      -0.584800
     27 C18          0.4650     1.5470    -0.2850 c3         1 RSY      -0.193400
     28 C16          1.9510     1.6500    -0.0150 c          1 RSY       0.684100
     29 O17          2.6040     2.6210    -0.3620 o          1 RSY      -0.598100
     30 C10          4.5150    -0.7330     0.3150 c          1 RSY       0.655100
     31 N15          2.4880     0.5850     0.6120 ns         1 RSY      -0.561900
     32 C12          3.8720     0.4880     0.9720 c3         1 RSY       0.026700
     33 C13          4.0560     0.3360     2.4780 c3         1 RSY       0.027000
     34 N09          5.7710    -0.5470    -0.1100 ns         1 RSY      -0.543900
     35 C05          6.6070    -1.6500    -0.5040 c3         1 RSY       0.028700
     36 C06          6.9130    -2.5300     0.7140 c          1 RSY       0.658100
     37 O07          6.8340    -2.1020     1.8530 o          1 RSY      -0.606100
     38 C04          7.9110    -1.1330    -1.1170 c3         1 RSY      -0.084400
     39 C02          7.7300    -0.2230    -2.3350 c3         1 RSY      -0.059700
     40 C01          9.0980     0.2260    -2.8380 c3         1 RSY      -0.091100
     41 C03          6.9420    -0.9040    -3.4480 c3         1 RSY      -0.091100
     42 N08          7.3010    -3.7750     0.4100 nt         1 RSY      -0.670000
     43 H43         -4.1000    -4.8260    -2.9010 h4         1 RSY       0.024100
     44 H42         -3.8820    -7.0950    -1.9210 ha         1 RSY       0.144000
     45 H41         -3.5340    -7.3030     0.5470 ha         1 RSY       0.142000
     46 H40         -3.4300    -5.2230     1.9160 ha         1 RSY       0.167000
     47 HN36        -3.9240    -1.6990    -0.7250 hn         1 RSY       0.360500
     48 H32         -3.3230    -0.2980     1.7990 h1         1 RSY       0.085700
     49 H33         -5.0210     1.3750     1.4230 hc         1 RSY       0.045700
     50 H34         -5.9370    -0.2860    -0.9730 hc         1 RSY       0.040700
     51 H34A        -6.8430     1.0390    -0.2560 hc         1 RSY       0.040700
     52 H34B        -5.2980     1.3670    -1.0110 hc         1 RSY       0.040700
     53 H35         -5.5800    -0.6370     2.8170 hc         1 RSY       0.040700
     54 H35A        -6.9930     0.0910     2.0550 hc         1 RSY       0.040700
     55 H35B        -6.3130    -1.3920     1.4010 hc         1 RSY       0.040700
     56 HN29        -2.7640     1.9630     1.4080 hn         1 RSY       0.314500
     57 H21         -1.8060     2.5720    -1.3060 h1         1 RSY       0.086700
     58 H22         -2.3170     4.4110     1.0760 hc         1 RSY       0.064200
     59 H22A        -1.8360     4.9130    -0.5330 hc         1 RSY       0.064200
     60 H28         -3.3980     4.2920    -2.5060 ha         1 RSY       0.128000
     61 H24         -4.6290     4.0860     1.5860 ha         1 RSY       0.128000
     62 H27         -5.7520     4.3070    -3.2150 ha         1 RSY       0.131000
     63 H25         -6.9830     4.0870     0.8800 ha         1 RSY       0.131000
     64 H26         -7.5630     4.2070    -1.5250 ha         1 RSY       0.131000
     65 H19          0.1980     3.6660    -0.3890 h1         1 RSY       0.097700
     66 HO20        -0.3010     2.2900     2.0130 ho         1 RSY       0.400000
     67 H18          0.3310     1.3900    -1.3590 hc         1 RSY       0.075700
     68 H18A         0.0310     0.6780     0.2160 hc         1 RSY       0.075700
     69 HN15         1.8910    -0.1930     0.8460 hn         1 RSY       0.330500
     70 H12          4.3700     1.4010     0.6430 h1         1 RSY       0.102700
     71 H13          3.5320    -0.5420     2.8530 h1         1 RSY       0.084200
     72 H13A         5.1110     0.2510     2.7320 h1         1 RSY       0.084200
     73 HN09         6.2130     0.3400     0.0730 hn         1 RSY       0.325500
     74 H05          6.0750    -2.2520    -1.2450 h1         1 RSY       0.083700
     75 H04          8.5170    -1.9950    -1.4090 hc         1 RSY       0.052200
     76 H04A         8.4820    -0.6020    -0.3480 hc         1 RSY       0.052200
     77 H02          7.1810     0.6730    -2.0250 hc         1 RSY       0.051700
     78 H01          8.9990     0.9320    -3.6630 hc         1 RSY       0.036367
     79 H01A         9.6740     0.7130    -2.0500 hc         1 RSY       0.036367
     80 H01B         9.6820    -0.6250    -3.1980 hc         1 RSY       0.036367
     81 H03          7.4280    -1.8330    -3.7550 hc         1 RSY       0.036367
     82 H03A         5.9220    -1.1440    -3.1450 hc         1 RSY       0.036367
     83 H03B         6.8730    -0.2580    -4.3240 hc         1 RSY       0.036367
     84 HN08         7.3360    -4.1060    -0.5390 hn         1 RSY       0.316000
     85 HN0A         7.5840    -4.4160     1.1340 hn         1 RSY       0.316000
     86 O11          3.9200    -1.7940     0.2290 o          1 RSY      -0.597100
     87 CL14         3.3960     1.7610     3.3360 cl         1 RSY      -0.186400
@<TRIPOS>BOND
     1     1     4 1   
     2     1     6 ar  
     3     1     8 ar  
     4     2     3 ar  
     5     2     8 ar  
     6     2    43 1   
     7     3     5 ar  
     8     3    44 1   
     9     4     7 2   
    10     4     9 1   
    11     5     6 ar  
    12     5    45 1   
    13     6    46 1   
    14     9    10 1   
    15     9    47 1   
    16    10    11 1   
    17    10    14 1   
    18    10    48 1   
    19    11    12 1   
    20    11    13 1   
    21    11    49 1   
    22    12    50 1   
    23    12    51 1   
    24    12    52 1   
    25    13    53 1   
    26    13    54 1   
    27    13    55 1   
    28    14    15 2   
    29    14    16 1   
    30    16    17 1   
    31    16    56 1   
    32    17    18 1   
    33    17    25 1   
    34    17    57 1   
    35    18    19 1   
    36    18    58 1   
    37    18    59 1   
    38    19    20 ar  
    39    19    21 ar  
    40    20    22 ar  
    41    20    60 1   
    42    21    23 ar  
    43    21    61 1   
    44    22    24 ar  
    45    22    62 1   
    46    23    24 ar  
    47    23    63 1   
    48    24    64 1   
    49    25    26 1   
    50    25    27 1   
    51    25    65 1   
    52    26    66 1   
    53    27    28 1   
    54    27    67 1   
    55    27    68 1   
    56    28    29 2   
    57    28    31 1   
    58    30    32 1   
    59    30    34 1   
    60    30    86 2   
    61    31    32 1   
    62    31    69 1   
    63    32    33 1   
    64    32    70 1   
    65    33    71 1   
    66    33    72 1   
    67    33    87 1   
    68    34    35 1   
    69    34    73 1   
    70    35    36 1   
    71    35    38 1   
    72    35    74 1   
    73    36    37 2   
    74    36    42 1   
    75    38    39 1   
    76    38    75 1   
    77    38    76 1   
    78    39    40 1   
    79    39    41 1   
    80    39    77 1   
    81    40    78 1   
    82    40    79 1   
    83    40    80 1   
    84    41    81 1   
    85    41    82 1   
    86    41    83 1   
    87    42    84 1   
    88    42    85 1   
@<TRIPOS>SUBSTRUCTURE
     1 RSY         1 TEMP              0 ****  ****    0 ROOT
