@<TRIPOS>MOLECULE
RSZ
   83    85     1     0     0
SMALL
abcg2


@<TRIPOS>ATOM
      1 C10         -6.4540    -0.7300    -0.4370 ca         1 RSZ       0.289500
      2 C06         -7.5230     0.8450    -1.6910 ca         1 RSZ       0.336900
      3 C07         -8.7390     0.5870    -1.0700 ca         1 RSZ      -0.148000
      4 C12         -5.1650    -1.4150    -0.0790 c          1 RSZ       0.509600
      5 C08         -8.7850    -0.3910    -0.0900 ca         1 RSZ      -0.084000
      6 C09         -7.6190    -1.0700     0.2340 ca         1 RSZ      -0.108000
      7 O40         -5.1370    -2.3160     0.7480 o          1 RSZ      -0.615100
      8 N05         -6.4080     0.2030    -1.3820 nb         1 RSZ      -0.668000
      9 N01         -4.0980    -0.9480    -0.7340 ns         1 RSZ      -0.473900
     10 C15         -2.7430    -1.3400    -0.4360 c3         1 RSZ       0.038700
     11 C16         -1.9280    -0.0560    -0.3230 c          1 RSZ       0.588100
     12 O41         -2.0110     0.8170    -1.1710 o          1 RSZ      -0.595100
     13 C17         -2.1640    -2.3370    -1.4580 c3         1 RSZ      -0.065700
     14 C18         -2.1750    -1.8350    -2.8970 c3         1 RSZ      -0.088600
     15 C19         -0.7700    -2.7890    -1.0380 c3         1 RSZ      -0.088600
     16 N02         -1.1360     0.0280     0.7640 ns         1 RSZ      -0.495900
     17 C22         -0.5540     1.2760     1.2160 c3         1 RSZ       0.068700
     18 C24         -1.2890     1.7680     2.4740 c3         1 RSZ      -0.048100
     19 C25         -2.7750     1.8150     2.2490 ca         1 RSZ      -0.090300
     20 C11         -3.6030     0.8150     2.7510 ca         1 RSZ      -0.104000
     21 C21         -3.3450     2.8170     1.4670 ca         1 RSZ      -0.104000
     22 C13         -4.9650     0.8100     2.4780 ca         1 RSZ      -0.106000
     23 C20         -4.7040     2.8160     1.1900 ca         1 RSZ      -0.106000
     24 C14         -5.5190     1.8100     1.6930 ca         1 RSZ      -0.112000
     25 C23          0.9540     1.1510     1.4360 c3         1 RSZ       0.174300
     26 O42          1.2790     0.1950     2.4220 oh         1 RSZ      -0.651000
     27 C26          1.6880     0.8660     0.1310 c3         1 RSZ      -0.195400
     28 C28          3.1870     0.8880     0.3390 c          1 RSZ       0.615100
     29 O43          3.7460     1.8590     0.8260 o          1 RSZ      -0.600100
     30 N04          3.8360    -0.2250    -0.0470 ns         1 RSZ      -0.491900
     31 C31          5.2680    -0.3540    -0.0540 c3         1 RSZ       0.032700
     32 C32          5.6740    -1.6310     0.6740 c          1 RSZ       0.590100
     33 O44          5.0360    -2.6650     0.5570 o          1 RSZ      -0.608100
     34 C33          5.8140    -0.4010    -1.4940 c3         1 RSZ      -0.045100
     35 C34          5.4410     0.8360    -2.2590 ca         1 RSZ      -0.084300
     36 C27          6.2110     1.9910    -2.1580 ca         1 RSZ      -0.101000
     37 C36          4.2910     0.8660    -3.0430 ca         1 RSZ      -0.101000
     38 C29          5.8450     3.1500    -2.8280 ca         1 RSZ      -0.106000
     39 C35          3.9180     2.0240    -3.7140 ca         1 RSZ      -0.106000
     40 C30          4.6950     3.1700    -3.6080 ca         1 RSZ      -0.105000
     41 N03          6.8020    -1.5390     1.3890 ns         1 RSZ      -0.500900
     42 C37          7.3650    -2.6860     2.0720 c3         1 RSZ       0.190100
     43 C38          8.6970    -2.3800     2.5740 c1         1 RSZ      -0.177100
     44 C39          9.7920    -2.1250     2.9960 c1         1 RSZ      -0.210000
     45 H06         -7.4510     1.5990    -2.4650 h4         1 RSZ       0.024100
     46 H07         -9.6220     1.1440    -1.3520 ha         1 RSZ       0.127000
     47 H08         -9.7120    -0.6210     0.4170 ha         1 RSZ       0.125000
     48 H09         -7.6110    -1.8340     0.9970 ha         1 RSZ       0.148000
     49 HN01        -4.2520    -0.1710    -1.3620 hn         1 RSZ       0.360500
     50 H15         -2.7590    -1.8500     0.5310 h1         1 RSZ       0.077700
     51 H17         -2.8290    -3.2060    -1.4030 hc         1 RSZ       0.062700
     52 H18         -1.4670    -1.0220    -3.0540 hc         1 RSZ       0.038033
     53 H18A        -1.8940    -2.6470    -3.5690 hc         1 RSZ       0.038033
     54 H18B        -3.1630    -1.4890    -3.2010 hc         1 RSZ       0.038033
     55 H19         -0.0380    -1.9830    -1.1240 hc         1 RSZ       0.038033
     56 H19A        -0.7570    -3.1450    -0.0050 hc         1 RSZ       0.038033
     57 H19B        -0.4260    -3.6060    -1.6720 hc         1 RSZ       0.038033
     58 HN02        -1.2380    -0.7000     1.4550 hn         1 RSZ       0.309500
     59 H22         -0.7070     2.0080     0.4220 h1         1 RSZ       0.089700
     60 H24         -1.0570     1.1080     3.3140 hc         1 RSZ       0.062700
     61 H24A        -0.9040     2.7580     2.7290 hc         1 RSZ       0.062700
     62 H11         -3.1760     0.0250     3.3590 ha         1 RSZ       0.111000
     63 H21         -2.7180     3.6030     1.0600 ha         1 RSZ       0.111000
     64 H13         -5.5890     0.0190     2.8740 ha         1 RSZ       0.115500
     65 H20         -5.1300     3.6020     0.5790 ha         1 RSZ       0.115500
     66 H14         -6.5790     1.8050     1.4700 ha         1 RSZ       0.110000
     67 H23          1.3000     2.1120     1.8250 h1         1 RSZ       0.098700
     68 HO42         1.1570    -0.6890     2.0580 ho         1 RSZ       0.440000
     69 H26          1.3480    -0.0810    -0.2980 hc         1 RSZ       0.073200
     70 H26A         1.4480     1.6420    -0.6010 hc         1 RSZ       0.073200
     71 HN04         3.3080    -0.9850    -0.4460 hn         1 RSZ       0.325500
     72 H31          5.6800     0.5180     0.4550 h1         1 RSZ       0.094700
     73 H33          6.9000    -0.5130    -1.4540 hc         1 RSZ       0.060200
     74 H33A         5.4180    -1.2890    -1.9930 hc         1 RSZ       0.060200
     75 H27          7.1090     1.9860    -1.5500 ha         1 RSZ       0.108000
     76 H36          3.6830    -0.0270    -3.1360 ha         1 RSZ       0.108000
     77 H29          6.4580     4.0380    -2.7430 ha         1 RSZ       0.114000
     78 H35          3.0230     2.0290    -4.3220 ha         1 RSZ       0.114000
     79 H30          4.4100     4.0720    -4.1340 ha         1 RSZ       0.113000
     80 HN03         7.2510    -0.6440     1.5020 hn         1 RSZ       0.328500
     81 H37          6.7270    -2.9960     2.9060 h1         1 RSZ       0.070700
     82 H37A         7.4210    -3.5350     1.3870 h1         1 RSZ       0.070700
     83 H39         10.7650    -1.9040     3.3710 ha         1 RSZ       0.259000
@<TRIPOS>BOND
     1     1     4 1   
     2     1     6 ar  
     3     1     8 ar  
     4     2     3 ar  
     5     2     8 ar  
     6     2    45 1   
     7     3     5 ar  
     8     3    46 1   
     9     4     7 2   
    10     4     9 1   
    11     5     6 ar  
    12     5    47 1   
    13     6    48 1   
    14     9    10 1   
    15     9    49 1   
    16    10    11 1   
    17    10    13 1   
    18    10    50 1   
    19    11    12 2   
    20    11    16 1   
    21    13    14 1   
    22    13    15 1   
    23    13    51 1   
    24    14    52 1   
    25    14    53 1   
    26    14    54 1   
    27    15    55 1   
    28    15    56 1   
    29    15    57 1   
    30    16    17 1   
    31    16    58 1   
    32    17    18 1   
    33    17    25 1   
    34    17    59 1   
    35    18    19 1   
    36    18    60 1   
    37    18    61 1   
    38    19    20 ar  
    39    19    21 ar  
    40    20    22 ar  
    41    20    62 1   
    42    21    23 ar  
    43    21    63 1   
    44    22    24 ar  
    45    22    64 1   
    46    23    24 ar  
    47    23    65 1   
    48    24    66 1   
    49    25    26 1   
    50    25    27 1   
    51    25    67 1   
    52    26    68 1   
    53    27    28 1   
    54    27    69 1   
    55    27    70 1   
    56    28    29 2   
    57    28    30 1   
    58    30    31 1   
    59    30    71 1   
    60    31    32 1   
    61    31    34 1   
    62    31    72 1   
    63    32    33 2   
    64    32    41 1   
    65    34    35 1   
    66    34    73 1   
    67    34    74 1   
    68    35    36 ar  
    69    35    37 ar  
    70    36    38 ar  
    71    36    75 1   
    72    37    39 ar  
    73    37    76 1   
    74    38    40 ar  
    75    38    77 1   
    76    39    40 ar  
    77    39    78 1   
    78    40    79 1   
    79    41    42 1   
    80    41    80 1   
    81    42    43 1   
    82    42    81 1   
    83    42    82 1   
    84    43    44 3   
    85    44    83 1   
@<TRIPOS>SUBSTRUCTURE
     1 RSZ         1 TEMP              0 ****  ****    0 ROOT
