@<TRIPOS>MOLECULE
RSZ
   83    85     1     0     0
SMALL
No Charge or Current Charge


@<TRIPOS>ATOM
      1 C10         -5.9490    -0.9010    -2.2790 ca         1 RSZ       0.289500
      2 C06         -6.2700     0.5910    -4.0530 ca         1 RSZ       0.336900
      3 C07         -7.5110     0.0190    -4.3740 ca         1 RSZ      -0.148000
      4 C12         -5.0810    -1.4090    -1.1200 c          1 RSZ       0.509600
      5 C08         -7.9850    -1.0590    -3.6110 ca         1 RSZ      -0.084000
      6 C09         -7.1890    -1.5220    -2.5490 ca         1 RSZ      -0.108000
      7 O40         -5.4040    -2.3410    -0.3880 o          1 RSZ      -0.615100
      8 N05         -5.4980     0.1500    -3.0320 nb         1 RSZ      -0.668000
      9 N01         -3.8890    -0.7340    -0.9390 ns         1 RSZ      -0.473900
     10 C15         -2.8640    -1.0400     0.0850 c3         1 RSZ       0.038700
     11 C16         -1.9930     0.2270     0.3320 c          1 RSZ       0.588100
     12 O41         -1.8640     1.1160    -0.5020 o          1 RSZ      -0.595100
     13 C17         -2.0280    -2.2960    -0.3270 c3         1 RSZ      -0.065700
     14 C18         -1.2150    -2.0890    -1.6290 c3         1 RSZ      -0.088600
     15 C19         -1.1250    -2.8220     0.8130 c3         1 RSZ      -0.088600
     16 N02         -1.3940     0.3000     1.5750 ns         1 RSZ      -0.495900
     17 C22         -0.5960     1.4420     2.0600 c3         1 RSZ       0.068700
     18 C24         -1.0300     1.8290     3.4970 c3         1 RSZ      -0.048100
     19 C25         -2.5310     2.0770     3.6100 ca         1 RSZ      -0.090300
     20 C11         -3.3570     1.1640     4.2950 ca         1 RSZ      -0.104000
     21 C21         -3.1070     3.2180     3.0160 ca         1 RSZ      -0.104000
     22 C13         -4.7420     1.3880     4.3830 ca         1 RSZ      -0.106000
     23 C20         -4.4920     3.4420     3.1040 ca         1 RSZ      -0.106000
     24 C14         -5.3100     2.5270     3.7870 ca         1 RSZ      -0.112000
     25 C23          0.9420     1.2110     1.9190 c3         1 RSZ       0.174300
     26 O42          1.3570     0.0960     2.7210 oh         1 RSZ      -0.651000
     27 C26          1.3870     0.9570     0.4650 c3         1 RSZ      -0.195400
     28 C28          2.9040     1.0220     0.3280 c          1 RSZ       0.615100
     29 O43          3.5200     2.0760     0.3930 o          1 RSZ      -0.600100
     30 N04          3.5210    -0.1850     0.0860 ns         1 RSZ      -0.491900
     31 C31          4.9600    -0.3600    -0.2230 c3         1 RSZ       0.032700
     32 C32          5.5280    -1.6150     0.4990 c          1 RSZ       0.590100
     33 O44          4.8220    -2.4740     1.0150 o          1 RSZ      -0.608100
     34 C33          5.1890    -0.4440    -1.7560 c3         1 RSZ      -0.045100
     35 C34          4.5890     0.7290    -2.5250 ca         1 RSZ      -0.084300
     36 C27          5.2880     1.9490    -2.6150 ca         1 RSZ      -0.101000
     37 C36          3.3280     0.6070    -3.1420 ca         1 RSZ      -0.101000
     38 C29          4.7310     3.0350    -3.3130 ca         1 RSZ      -0.106000
     39 C35          2.7710     1.6940    -3.8380 ca         1 RSZ      -0.106000
     40 C30          3.4720     2.9080    -3.9250 ca         1 RSZ      -0.105000
     41 N03          6.9010    -1.7050     0.5270 ns         1 RSZ      -0.500900
     42 C37          7.6380    -2.7990     1.1470 c3         1 RSZ       0.190100
     43 C38          9.0770    -2.5810     0.9590 c1         1 RSZ      -0.177100
     44 C39         10.2580    -2.3770     0.7880 c1         1 RSZ      -0.210000
     45 H06         -5.8790     1.4280    -4.6300 h4         1 RSZ       0.024100
     46 H07         -8.0920     0.4110    -5.2050 ha         1 RSZ       0.127000
     47 H08         -8.9430    -1.5240    -3.8340 ha         1 RSZ       0.125000
     48 H09         -7.5280    -2.3550    -1.9390 ha         1 RSZ       0.148000
     49 HN01        -3.7190     0.0350    -1.5830 hn         1 RSZ       0.360500
     50 H15         -3.3860    -1.2560     1.0260 h1         1 RSZ       0.077700
     51 H17         -2.7470    -3.1000    -0.5310 hc         1 RSZ       0.062700
     52 H18         -0.4530    -1.3100    -1.5030 hc         1 RSZ       0.038033
     53 H18A        -0.7050    -3.0170    -1.9150 hc         1 RSZ       0.038033
     54 H18B        -1.8670    -1.7990    -2.4610 hc         1 RSZ       0.038033
     55 H19         -0.2890    -2.1400     1.0070 hc         1 RSZ       0.038033
     56 H19A        -1.6980    -2.9470     1.7400 hc         1 RSZ       0.038033
     57 H19B        -0.7020    -3.7980     0.5460 hc         1 RSZ       0.038033
     58 HN02        -1.6170    -0.4430     2.2280 hn         1 RSZ       0.309500
     59 H22         -0.8380     2.3080     1.4290 h1         1 RSZ       0.089700
     60 H24         -0.7240     1.0400     4.1950 hc         1 RSZ       0.062700
     61 H24A        -0.4840     2.7300     3.8030 hc         1 RSZ       0.062700
     62 H11         -2.9290     0.2780     4.7580 ha         1 RSZ       0.111000
     63 H21         -2.4820     3.9310     2.4830 ha         1 RSZ       0.111000
     64 H13         -5.3750     0.6790     4.9120 ha         1 RSZ       0.115500
     65 H20         -4.9300     4.3240     2.6420 ha         1 RSZ       0.115500
     66 H14         -6.3820     2.6990     3.8550 ha         1 RSZ       0.110000
     67 H23          1.4420     2.1280     2.2680 h1         1 RSZ       0.098700
     68 HO42         0.7410    -0.6400     2.5240 ho         1 RSZ       0.440000
     69 H26          1.0160    -0.0190     0.1320 hc         1 RSZ       0.073200
     70 H26A         0.9610     1.7440    -0.1670 hc         1 RSZ       0.073200
     71 HN04         2.9320    -1.0100     0.1030 hn         1 RSZ       0.325500
     72 H31          5.5140     0.5040     0.1670 h1         1 RSZ       0.094700
     73 H33          6.2650    -0.5030    -1.9590 hc         1 RSZ       0.060200
     74 H33A         4.7640    -1.3860    -2.1260 hc         1 RSZ       0.060200
     75 H27          6.2600     2.0580    -2.1400 ha         1 RSZ       0.108000
     76 H36          2.7760    -0.3270    -3.0770 ha         1 RSZ       0.108000
     77 H29          5.2750     3.9750    -3.3780 ha         1 RSZ       0.114000
     78 H35          1.7960     1.5940    -4.3100 ha         1 RSZ       0.114000
     79 H30          3.0410     3.7490    -4.4640 ha         1 RSZ       0.113000
     80 HN03         7.4300    -0.9610     0.0880 hn         1 RSZ       0.328500
     81 H37          7.4060    -2.8390     2.2190 h1         1 RSZ       0.070700
     82 H37A         7.3440    -3.7510     0.6840 h1         1 RSZ       0.070700
     83 H39         11.3070    -2.2070     0.6430 ha         1 RSZ       0.259000
@<TRIPOS>BOND
     1     1     4 1   
     2     1     6 ar  
     3     1     8 ar  
     4     2     3 ar  
     5     2     8 ar  
     6     2    45 1   
     7     3     5 ar  
     8     3    46 1   
     9     4     7 2   
    10     4     9 1   
    11     5     6 ar  
    12     5    47 1   
    13     6    48 1   
    14     9    10 1   
    15     9    49 1   
    16    10    11 1   
    17    10    13 1   
    18    10    50 1   
    19    11    12 2   
    20    11    16 1   
    21    13    14 1   
    22    13    15 1   
    23    13    51 1   
    24    14    52 1   
    25    14    53 1   
    26    14    54 1   
    27    15    55 1   
    28    15    56 1   
    29    15    57 1   
    30    16    17 1   
    31    16    58 1   
    32    17    18 1   
    33    17    25 1   
    34    17    59 1   
    35    18    19 1   
    36    18    60 1   
    37    18    61 1   
    38    19    20 ar  
    39    19    21 ar  
    40    20    22 ar  
    41    20    62 1   
    42    21    23 ar  
    43    21    63 1   
    44    22    24 ar  
    45    22    64 1   
    46    23    24 ar  
    47    23    65 1   
    48    24    66 1   
    49    25    26 1   
    50    25    27 1   
    51    25    67 1   
    52    26    68 1   
    53    27    28 1   
    54    27    69 1   
    55    27    70 1   
    56    28    29 2   
    57    28    30 1   
    58    30    31 1   
    59    30    71 1   
    60    31    32 1   
    61    31    34 1   
    62    31    72 1   
    63    32    33 2   
    64    32    41 1   
    65    34    35 1   
    66    34    73 1   
    67    34    74 1   
    68    35    36 ar  
    69    35    37 ar  
    70    36    38 ar  
    71    36    75 1   
    72    37    39 ar  
    73    37    76 1   
    74    38    40 ar  
    75    38    77 1   
    76    39    40 ar  
    77    39    78 1   
    78    40    79 1   
    79    41    42 1   
    80    41    80 1   
    81    42    43 1   
    82    42    81 1   
    83    42    82 1   
    84    43    44 3   
    85    44    83 1   
@<TRIPOS>SUBSTRUCTURE
     1 RSZ         1 TEMP              0 ****  ****    0 ROOT
