@<TRIPOS>MOLECULE
RT0
   32    34     1     0     0
SMALL
bcc


@<TRIPOS>ATOM
      1 F35         -6.4580    -1.4310     0.1370 f          1 RT0      -0.154900
      2 C32         -5.2280    -0.8940     0.1200 ca         1 RT0       0.119900
      3 C31         -5.0860     0.4630     0.3410 ca         1 RT0      -0.174000
      4 C30         -3.8140     1.0110     0.3190 ca         1 RT0      -0.092000
      5 C33         -4.1410    -1.7130    -0.1170 ca         1 RT0      -0.174000
      6 C34         -2.8760    -1.1490    -0.1360 ca         1 RT0      -0.092000
      7 C29         -2.6910     0.2170     0.0790 ca         1 RT0      -0.095500
      8 C27         -1.3580     0.8120     0.0500 cc         1 RT0       0.289800
      9 N26         -1.1400     2.1250     0.2950 nc         1 RT0      -0.377000
     10 N25          0.1170     2.3760     0.1900 nd         1 RT0      -0.207800
     11 C28         -0.1380     0.2370    -0.2210 cd         1 RT0      -0.217600
     12 N24          0.7360     1.2510    -0.1190 na         1 RT0       0.137400
     13 C22          2.1730     1.2340    -0.3130 c5         1 RT0       0.001000
     14 C21          2.6030     0.7530    -1.7220 c5         1 RT0       0.145800
     15 C23          2.9320     0.3180     0.6380 c5         1 RT0      -0.103400
     16 C8           4.2270     0.0750    -0.1470 c5         1 RT0       0.016500
     17 C6           4.9670    -1.1690     0.3780 c          1 RT0       0.932600
     18 O7           4.8170    -2.2290    -0.2610 o          1 RT0      -0.825300
     19 N9           3.8100    -0.0450    -1.5380 n7         1 RT0      -0.786200
     20 H31         -5.9520     1.0840     0.5260 ha         1 RT0       0.143000
     21 H33         -4.2770    -2.7730    -0.2820 ha         1 RT0       0.143000
     22 H30         -3.6970     2.0730     0.4870 ha         1 RT0       0.145500
     23 H34         -2.0260    -1.7940    -0.3190 ha         1 RT0       0.145500
     24 H28          0.1590    -0.7680    -0.4680 h4         1 RT0       0.193000
     25 H22          2.4900     2.2660    -0.1590 h1         1 RT0       0.086700
     26 H211         1.8170     0.1670    -2.2020 h1         1 RT0       0.034700
     27 H212         2.7830     1.6210    -2.3610 h1         1 RT0       0.034700
     28 H231         3.0870     0.7630     1.6200 hc         1 RT0       0.059200
     29 H232         2.3970    -0.6280     0.7700 hc         1 RT0       0.059200
     30 H8           4.8780     0.9500    -0.0320 h1         1 RT0       0.057700
     31 H1           3.6130    -1.0240    -1.7050 hn         1 RT0       0.380800
     32 OXT          5.6140    -1.0090     1.4290 o          1 RT0      -0.825300
@<TRIPOS>BOND
     1     1     2 1   
     2     2     3 ar  
     3     2     5 ar  
     4     3     4 ar  
     5     3    20 1   
     6     4     7 ar  
     7     4    22 1   
     8     5     6 ar  
     9     5    21 1   
    10     6     7 ar  
    11     6    23 1   
    12     7     8 1   
    13     8     9 1   
    14     8    11 2   
    15     9    10 2   
    16    10    12 1   
    17    11    12 1   
    18    11    24 1   
    19    12    13 1   
    20    13    14 1   
    21    13    15 1   
    22    13    25 1   
    23    14    19 1   
    24    14    26 1   
    25    14    27 1   
    26    15    16 1   
    27    15    28 1   
    28    15    29 1   
    29    16    17 1   
    30    16    19 1   
    31    16    30 1   
    32    17    18 1   
    33    17    32 1   
    34    19    31 1   
@<TRIPOS>SUBSTRUCTURE
     1 RT0         1 TEMP              0 ****  ****    0 ROOT
