@<TRIPOS>MOLECULE
RT0
   32    34     1     0     0
SMALL
No Charge or Current Charge


@<TRIPOS>ATOM
      1 F35         -6.4970    -1.4940     0.1720 f          1 RT0      -0.190000
      2 C32         -5.2780    -0.9120     0.1460 ca         1 RT0       0.155000
      3 C31         -5.1700     0.4840     0.1850 ca         1 RT0      -0.156000
      4 C30         -3.9020     1.0910     0.1590 ca         1 RT0      -0.074000
      5 C33         -4.1260    -1.7060     0.0860 ca         1 RT0      -0.156000
      6 C34         -2.8550    -1.1030     0.0590 ca         1 RT0      -0.074000
      7 C29         -2.7270     0.3070     0.0850 ca         1 RT0      -0.095500
      8 C27         -1.4070     0.9590     0.0780 cc         1 RT0       0.224500
      9 N26         -1.1810     2.2840     0.3140 nc         1 RT0      -0.377000
     10 N25          0.1080     2.4910     0.2100 nd         1 RT0      -0.207800
     11 C28         -0.2540     0.2930    -0.1930 cd         1 RT0      -0.185000
     12 N24          0.6970     1.2860    -0.1000 na         1 RT0       0.158800
     13 C22          2.1480     1.1900    -0.2900 c5         1 RT0       0.030300
     14 C21          2.5910     0.6840    -1.6850 c5         1 RT0       0.145800
     15 C23          2.8650     0.1290     0.5830 c5         1 RT0      -0.103400
     16 C8           4.2800     0.1190    -0.0670 c5         1 RT0       0.016500
     17 C6           5.0160    -1.2410     0.2880 c          1 RT0       0.722000
     18 O7           5.0220    -2.1480    -0.5360 o          1 RT0      -0.720000
     19 N9           4.0400     0.3890    -1.5380 n7         1 RT0      -0.841400
     20 H31         -6.0670     1.0960     0.2360 ha         1 RT0       0.125000
     21 H33         -4.2160    -2.7900     0.0630 ha         1 RT0       0.125000
     22 H30         -3.8370     2.1770     0.1910 ha         1 RT0       0.127500
     23 H34         -1.9780    -1.7430     0.0240 ha         1 RT0       0.127500
     24 H28         -0.0350    -0.7370    -0.4380 h4         1 RT0       0.175000
     25 H22          2.5920     2.1770    -0.1070 h1         1 RT0       0.086700
     26 H211         2.0470    -0.2330    -1.9520 h1         1 RT0       0.034700
     27 H212         2.4060     1.4240    -2.4760 h1         1 RT0       0.034700
     28 H231         2.8930     0.4030     1.6440 hc         1 RT0       0.059200
     29 H232         2.3800    -0.8530     0.5110 hc         1 RT0       0.059200
     30 H8           4.8840     0.9350     0.3530 h1         1 RT0       0.057700
     31 H1           4.2630    -0.4660    -2.0710 hn         1 RT0       0.436000
     32 OXT          5.6360    -1.3220     1.3410 o          1 RT0      -0.720000
@<TRIPOS>BOND
     1     1     2 1   
     2     2     3 ar  
     3     2     5 ar  
     4     3     4 ar  
     5     3    20 1   
     6     4     7 ar  
     7     4    22 1   
     8     5     6 ar  
     9     5    21 1   
    10     6     7 ar  
    11     6    23 1   
    12     7     8 1   
    13     8     9 1   
    14     8    11 2   
    15     9    10 2   
    16    10    12 1   
    17    11    12 1   
    18    11    24 1   
    19    12    13 1   
    20    13    14 1   
    21    13    15 1   
    22    13    25 1   
    23    14    19 1   
    24    14    26 1   
    25    14    27 1   
    26    15    16 1   
    27    15    28 1   
    28    15    29 1   
    29    16    17 1   
    30    16    19 1   
    31    16    30 1   
    32    17    18 1   
    33    17    32 1   
    34    19    31 1   
@<TRIPOS>SUBSTRUCTURE
     1 RT0         1 TEMP              0 ****  ****    0 ROOT
