@<TRIPOS>MOLECULE
RT1
   34    34     1     0     0
SMALL
No Charge or Current Charge


@<TRIPOS>ATOM
      1 C1          -3.4150    -0.3400     1.2630 ca         1 RT1      -0.105000
      2 C2          -4.1510    -1.5380     1.2730 ca         1 RT1      -0.139500
      3 C3          -4.5160    -2.1500     0.0630 ca         1 RT1      -0.154000
      4 C4          -4.1470    -1.5620    -1.1580 ca         1 RT1      -0.139500
      5 C5          -3.4110    -0.3630    -1.1700 ca         1 RT1      -0.105000
      6 C6          -3.0360     0.2540     0.0410 ca         1 RT1      -0.041300
      7 C7          -2.2610     1.5680     0.0340 c3         1 RT1      -0.006100
      8 C8          -0.8160     1.4590     0.5960 c3         1 RT1      -0.020700
      9 P1           0.3120     0.4090    -0.5310 p5         1 RT1       1.027400
     10 O1           0.3060     0.9440    -1.9300 o          1 RT1      -0.825500
     11 O2          -0.0450    -1.0430    -0.4750 o          1 RT1      -0.825500
     12 N           -0.3430     2.8310     1.0150 n8         1 RT1      -0.900800
     13 C9           1.9810     0.6670     0.2350 c3         1 RT1      -0.248600
     14 CA           3.1170    -0.3460    -0.1300 c3         1 RT1      -0.149700
     15 C11          3.5400    -0.2630    -1.6180 c3         1 RT1      -0.063100
     16 C            4.3530    -0.2080     0.8050 c          1 RT1       0.925600
     17 O            4.9840     0.8430     0.8140 o          1 RT1      -0.873800
     18 H1          -3.1420     0.1320     2.2050 ha         1 RT1       0.136500
     19 H9          -4.4380    -1.9910     2.2200 ha         1 RT1       0.104000
     20 H3          -5.0860    -3.0760     0.0710 ha         1 RT1       0.098000
     21 H4          -4.4310    -2.0330    -2.0970 ha         1 RT1       0.104000
     22 H5          -3.1300     0.0850    -2.1210 ha         1 RT1       0.136500
     23 H6          -2.2210     1.9890    -0.9780 hc         1 RT1       0.035200
     24 H7          -2.8220     2.2960     0.6340 hc         1 RT1       0.035200
     25 H8          -0.8630     0.8610     1.5150 h1         1 RT1       0.053700
     26 HN2          0.5850     2.7550     1.4470 hn         1 RT1       0.332300
     27 H11          2.2990     1.6880    -0.0060 hc         1 RT1       0.036700
     28 H12          1.8140     0.6310     1.3170 hc         1 RT1       0.036700
     29 H13          2.7150    -1.3540     0.0300 hc         1 RT1       0.045700
     30 H14          4.3530    -0.9690    -1.8230 hc         1 RT1       0.011700
     31 H15          2.7040    -0.5160    -2.2810 hc         1 RT1       0.011700
     32 H16          3.8890     0.7450    -1.8720 hc         1 RT1       0.011700
     33 H2          -0.1830     3.4030     0.1780 hn         1 RT1       0.332300
     34 OXT          4.6610    -1.1590     1.5130 o          1 RT1      -0.873800
@<TRIPOS>BOND
     1     1     2 ar  
     2     1     6 ar  
     3     1    18 1   
     4     2     3 ar  
     5     2    19 1   
     6     3     4 ar  
     7     3    20 1   
     8     4     5 ar  
     9     4    21 1   
    10     5     6 ar  
    11     5    22 1   
    12     6     7 1   
    13     7     8 1   
    14     7    23 1   
    15     7    24 1   
    16     8     9 1   
    17     8    12 1   
    18     8    25 1   
    19     9    10 1   
    20     9    11 1   
    21     9    13 1   
    22    12    26 1   
    23    12    33 1   
    24    13    14 1   
    25    13    27 1   
    26    13    28 1   
    27    14    15 1   
    28    14    16 1   
    29    14    29 1   
    30    15    30 1   
    31    15    31 1   
    32    15    32 1   
    33    16    17 1   
    34    16    34 1   
@<TRIPOS>SUBSTRUCTURE
     1 RT1         1 TEMP              0 ****  ****    0 ROOT
