@<TRIPOS>MOLECULE
RT1
   34    34     1     0     0
SMALL
bcc


@<TRIPOS>ATOM
      1 C1          -3.6670    -0.1770     1.2130 ca         1 RT1      -0.105000
      2 C2          -4.4030    -1.3550     1.1900 ca         1 RT1      -0.139500
      3 C3          -4.4670    -2.1120     0.0270 ca         1 RT1      -0.154000
      4 C4          -3.7870    -1.6820    -1.1060 ca         1 RT1      -0.139500
      5 C5          -3.0440    -0.5110    -1.0720 ca         1 RT1      -0.105000
      6 C6          -2.9790     0.2620     0.0850 ca         1 RT1      -0.041300
      7 C7          -2.2010     1.5460     0.1210 c3         1 RT1      -0.006100
      8 C8          -0.7800     1.4320     0.6840 c3         1 RT1      -0.020700
      9 P1           0.2980     0.3650    -0.4000 p5         1 RT1       1.027400
     10 O1           0.1950     0.9380    -1.8070 o          1 RT1      -0.825500
     11 O2          -0.0240    -1.1010    -0.1750 o          1 RT1      -0.825500
     12 N           -0.2560     2.7910     0.8480 n8         1 RT1      -0.900800
     13 C9           1.9770     0.6880     0.2960 c3         1 RT1      -0.248600
     14 CA           3.0280    -0.3290    -0.1410 c3         1 RT1      -0.149700
     15 C11          3.3150    -0.2460    -1.6410 c3         1 RT1      -0.063100
     16 C            4.3520    -0.2330     0.6570 c          1 RT1       0.925600
     17 O            4.4350     0.6090     1.5740 o          1 RT1      -0.873800
     18 H1          -3.6340     0.4150     2.1210 ha         1 RT1       0.136500
     19 H9          -4.9340    -1.6770     2.0770 ha         1 RT1       0.104000
     20 H3          -5.0470    -3.0260     0.0020 ha         1 RT1       0.098000
     21 H4          -3.8330    -2.2650    -2.0180 ha         1 RT1       0.104000
     22 H5          -2.5010    -0.1880    -1.9510 ha         1 RT1       0.136500
     23 H6          -2.1400     1.9660    -0.8870 hc         1 RT1       0.035200
     24 H7          -2.7390     2.2770     0.7330 hc         1 RT1       0.035200
     25 H8          -0.8370     0.9770     1.6800 h1         1 RT1       0.053700
     26 HN2          0.6380     2.7550     1.3210 hn         1 RT1       0.332300
     27 H11          2.3070     1.6980     0.0320 hc         1 RT1       0.036700
     28 H12          1.8940     0.6690     1.3870 hc         1 RT1       0.036700
     29 H13          2.6250    -1.3300     0.0570 hc         1 RT1       0.045700
     30 H14          4.0560    -0.9850    -1.9390 hc         1 RT1       0.011700
     31 H15          2.4130    -0.4080    -2.2300 hc         1 RT1       0.011700
     32 H16          3.7010     0.7420    -1.9070 hc         1 RT1       0.011700
     33 H2          -0.0570     3.1760    -0.0700 hn         1 RT1       0.332300
     34 OXT          5.2520    -1.0320     0.3190 o          1 RT1      -0.873800
@<TRIPOS>BOND
     1     1     2 ar  
     2     1     6 ar  
     3     1    18 1   
     4     2     3 ar  
     5     2    19 1   
     6     3     4 ar  
     7     3    20 1   
     8     4     5 ar  
     9     4    21 1   
    10     5     6 ar  
    11     5    22 1   
    12     6     7 1   
    13     7     8 1   
    14     7    23 1   
    15     7    24 1   
    16     8     9 1   
    17     8    12 1   
    18     8    25 1   
    19     9    10 1   
    20     9    11 1   
    21     9    13 1   
    22    12    26 1   
    23    12    33 1   
    24    13    14 1   
    25    13    27 1   
    26    13    28 1   
    27    14    15 1   
    28    14    16 1   
    29    14    29 1   
    30    15    30 1   
    31    15    31 1   
    32    15    32 1   
    33    16    17 1   
    34    16    34 1   
@<TRIPOS>SUBSTRUCTURE
     1 RT1         1 TEMP              0 ****  ****    0 ROOT
