@<TRIPOS>MOLECULE
RT2
   54    57     1     0     0
SMALL
abcg2


@<TRIPOS>ATOM
      1 C10          8.5520     2.7630   -19.3250 ca         1 RT2      -0.081300
      2 C13         11.0300     2.8840   -18.0730 ca         1 RT2      -0.118300
      3 C17         12.6030     1.0880   -20.5620 c6         1 RT2       0.127300
      4 C20         13.7740     3.5130   -21.6020 c6         1 RT2       0.181300
      5 C22         13.7800     4.6890   -22.5540 c3         1 RT2       0.173600
      6 C28          8.6520     2.9800   -17.9520 ca         1 RT2      -0.098000
      7 C01          8.1180    -2.9100   -23.2370 c3         1 RT2      -0.087100
      8 C03          6.8030    -1.0980   -22.0960 ca         1 RT2      -0.075300
      9 C04          6.8270     0.1060   -22.7910 ca         1 RT2      -0.107500
     10 C05          6.9430     1.3190   -22.1230 ca         1 RT2      -0.103500
     11 C06          7.0390     1.3640   -20.7370 ca         1 RT2      -0.087300
     12 C07          7.0090     0.1590   -20.0370 ca         1 RT2      -0.103500
     13 C08          6.8910    -1.0490   -20.7050 ca         1 RT2      -0.107500
     14 C09          7.2070     2.6700   -20.0030 c3         1 RT2       0.015200
     15 C11          9.7170     2.6080   -20.0750 ca         1 RT2      -0.054000
     16 C12         10.9400     2.6520   -19.4330 ca         1 RT2      -0.112300
     17 C14         12.4700     2.9270   -17.6820 c5         1 RT2       0.215900
     18 O15         13.1790     2.7050   -18.8950 os         1 RT2      -0.491000
     19 C16         12.3220     2.4970   -19.9970 c5         1 RT2       0.421300
     20 C18         13.9800     1.0730   -21.2230 c6         1 RT2       0.137300
     21 C19         14.0720     2.1730   -22.2730 c6         1 RT2       0.151300
     22 O21         12.5020     3.4760   -20.9720 os         1 RT2      -0.428000
     23 O23         12.8490     4.4760   -23.5870 oh         1 RT2      -0.708000
     24 O24         15.3670     2.2540   -22.8200 oh         1 RT2      -0.727000
     25 O25         14.2570    -0.1530   -21.8550 oh         1 RT2      -0.651000
     26 O26         11.6420     0.7200   -21.5180 oh         1 RT2      -0.689000
     27 C27          9.8860     3.0540   -17.3140 ca         1 RT2      -0.092000
     28 H171        12.6020     0.3870   -19.7170 h1         1 RT2       0.040700
     29 H201        14.5600     3.7070   -20.8590 h1         1 RT2       0.056700
     30 H222        14.7990     4.8090   -22.9360 h1         1 RT2       0.033200
     31 H221        13.5490     5.5970   -21.9800 h1         1 RT2       0.033200
     32 H281         7.7460     3.0970   -17.3690 ha         1 RT2       0.113000
     33 H011         8.0500    -3.8620   -23.7640 hc         1 RT2       0.035700
     34 H012         8.6110    -2.1950   -23.8970 hc         1 RT2       0.035700
     35 H013         8.7600    -3.0560   -22.3660 hc         1 RT2       0.035700
     36 H021         6.1060    -2.3110   -23.7120 hc         1 RT2       0.044700
     37 H022         6.2540    -3.1600   -22.1890 hc         1 RT2       0.044700
     38 H051         6.9570     2.2410   -22.6920 ha         1 RT2       0.112500
     39 H071         7.0790     0.1650   -18.9550 ha         1 RT2       0.112500
     40 H081         6.8650    -1.9710   -20.1350 ha         1 RT2       0.111500
     41 H092         7.0900     3.4980   -20.7080 hc         1 RT2       0.057700
     42 H091         6.4180     2.7850   -19.2570 hc         1 RT2       0.057700
     43 H111         9.6520     2.4580   -21.1460 ha         1 RT2       0.142000
     44 H141        12.7290     2.1500   -16.9560 h1         1 RT2       0.058700
     45 H142        12.7540     3.8920   -17.2500 h1         1 RT2       0.058700
     46 H181        14.7290     1.2870   -20.4480 h1         1 RT2       0.054700
     47 H191        13.3250     1.9880   -23.0560 h1         1 RT2       0.088700
     48 H231        12.9440     5.1880   -24.2250 ho         1 RT2       0.499000
     49 H241        15.5810     1.3960   -23.2010 ho         1 RT2       0.521000
     50 H251        14.4950    -0.8000   -21.1850 ho         1 RT2       0.444000
     51 H261        10.8770     0.3630   -21.0590 ho         1 RT2       0.507000
     52 H271         9.9400     3.2350   -16.2480 ha         1 RT2       0.119000
     53 H041         6.7550     0.1010   -23.8730 ha         1 RT2       0.111500
     54 C02          6.7340    -2.4120   -22.8230 c3         1 RT2      -0.032100
@<TRIPOS>BOND
     1     1     6 ar  
     2     1    14 1   
     3     1    15 ar  
     4     2    16 ar  
     5     2    17 1   
     6     2    27 ar  
     7     3    19 1   
     8     3    20 1   
     9     3    26 1   
    10     3    28 1   
    11     4     5 1   
    12     4    21 1   
    13     4    22 1   
    14     4    29 1   
    15     5    23 1   
    16     5    30 1   
    17     5    31 1   
    18     6    27 ar  
    19     6    32 1   
    20     7    33 1   
    21     7    34 1   
    22     7    35 1   
    23     7    54 1   
    24     8     9 ar  
    25     8    13 ar  
    26     8    54 1   
    27     9    10 ar  
    28     9    53 1   
    29    10    11 ar  
    30    10    38 1   
    31    11    12 ar  
    32    11    14 1   
    33    12    13 ar  
    34    12    39 1   
    35    13    40 1   
    36    14    41 1   
    37    14    42 1   
    38    15    16 ar  
    39    15    43 1   
    40    16    19 1   
    41    17    18 1   
    42    17    44 1   
    43    17    45 1   
    44    18    19 1   
    45    19    22 1   
    46    20    21 1   
    47    20    25 1   
    48    20    46 1   
    49    21    24 1   
    50    21    47 1   
    51    23    48 1   
    52    24    49 1   
    53    25    50 1   
    54    26    51 1   
    55    27    52 1   
    56    36    54 1   
    57    37    54 1   
@<TRIPOS>SUBSTRUCTURE
     1 RT2         1 TEMP              0 ****  ****    0 ROOT
