@<TRIPOS>MOLECULE
RT2
   54    57     1     0     0
SMALL
No Charge or Current Charge


@<TRIPOS>ATOM
      1 C10          8.6580     2.6780   -19.4230 ca         1 RT2      -0.081300
      2 C13         11.0860     2.6370   -18.0350 ca         1 RT2      -0.118300
      3 C17         12.9220     1.2460   -20.4820 c6         1 RT2       0.127300
      4 C20         13.8900     3.8090   -21.6610 c6         1 RT2       0.181300
      5 C22         13.7100     4.9210   -22.7490 c3         1 RT2       0.173600
      6 C28          8.6700     2.6350   -18.0070 ca         1 RT2      -0.098000
      7 C01          7.6520    -3.3620   -22.8050 c3         1 RT2      -0.087100
      8 C03          6.6260    -1.1400   -22.1210 ca         1 RT2      -0.075300
      9 C04          7.0740    -0.0380   -22.8730 ca         1 RT2      -0.107500
     10 C05          7.3020     1.2020   -22.2510 ca         1 RT2      -0.103500
     11 C06          7.0830     1.3540   -20.8680 ca         1 RT2      -0.087300
     12 C07          6.6390     0.2510   -20.1150 ca         1 RT2      -0.103500
     13 C08          6.4110    -0.9880   -20.7380 ca         1 RT2      -0.107500
     14 C09          7.3400     2.6910   -20.1850 c3         1 RT2       0.015200
     15 C11          9.8790     2.6980   -20.1320 ca         1 RT2      -0.054000
     16 C12         11.0830     2.6630   -19.4090 ca         1 RT2      -0.112300
     17 C14         12.5040     2.6520   -17.5370 c5         1 RT2       0.215900
     18 O15         13.2780     3.0100   -18.7300 os         1 RT2      -0.491000
     19 C16         12.5060     2.6650   -19.9250 c5         1 RT2       0.421300
     20 C18         14.3130     1.3430   -21.1550 c6         1 RT2       0.137300
     21 C19         14.2900     2.4270   -22.2640 c6         1 RT2       0.151300
     22 O21         12.6700     3.7530   -20.8690 os         1 RT2      -0.428000
     23 O23         12.5730     4.7140   -23.6140 oh         1 RT2      -0.708000
     24 O24         15.5810     2.4740   -22.9090 oh         1 RT2      -0.727000
     25 O25         14.6730     0.0660   -21.7150 oh         1 RT2      -0.651000
     26 O26         11.9700     0.6730   -21.4180 oh         1 RT2      -0.689000
     27 C27          9.8910     2.6210   -17.3020 ca         1 RT2      -0.092000
     28 H171        13.0190     0.5700   -19.6190 h1         1 RT2       0.040700
     29 H201        14.7010     4.1300   -20.9920 h1         1 RT2       0.056700
     30 H222        14.6330     4.9810   -23.3420 h1         1 RT2       0.033200
     31 H221        13.6070     5.8810   -22.2250 h1         1 RT2       0.033200
     32 H281         7.7340     2.6170   -17.4540 ha         1 RT2       0.113000
     33 H011         7.4490    -4.3210   -23.2950 hc         1 RT2       0.035700
     34 H012         8.4630    -2.8620   -23.3480 hc         1 RT2       0.035700
     35 H013         7.9920    -3.5620   -21.7820 hc         1 RT2       0.035700
     36 H021         6.0470    -2.3360   -23.8260 hc         1 RT2       0.044700
     37 H022         5.5810    -3.0270   -22.2830 hc         1 RT2       0.044700
     38 H051         7.6510     2.0430   -22.8460 ha         1 RT2       0.112500
     39 H071         6.4730     0.3540   -19.0450 ha         1 RT2       0.112500
     40 H081         6.0710    -1.8330   -20.1430 ha         1 RT2       0.111500
     41 H092         7.3510     3.5020   -20.9250 hc         1 RT2       0.057700
     42 H091         6.5090     2.9260   -19.5090 hc         1 RT2       0.057700
     43 H111         9.8910     2.7390   -21.2190 ha         1 RT2       0.142000
     44 H141        12.8130     1.6610   -17.1790 h1         1 RT2       0.058700
     45 H142        12.6680     3.3970   -16.7460 h1         1 RT2       0.058700
     46 H181        15.0490     1.6380   -20.3920 h1         1 RT2       0.054700
     47 H191        13.5170     2.1500   -22.9990 h1         1 RT2       0.088700
     48 H231        12.5180     5.4980   -24.2080 ho         1 RT2       0.499000
     49 H241        15.8850     1.5330   -22.9290 ho         1 RT2       0.521000
     50 H251        13.8110    -0.3410   -21.9650 ho         1 RT2       0.444000
     51 H261        11.1230     0.5500   -20.9300 ho         1 RT2       0.507000
     52 H271         9.9030     2.6000   -16.2150 ha         1 RT2       0.119000
     53 H041         7.2500    -0.1420   -23.9420 ha         1 RT2       0.111500
     54 C02          6.3860    -2.4840   -22.7940 c3         1 RT2      -0.032100
@<TRIPOS>BOND
     1     1     6 ar  
     2     1    14 1   
     3     1    15 ar  
     4     2    16 ar  
     5     2    17 1   
     6     2    27 ar  
     7     3    19 1   
     8     3    20 1   
     9     3    26 1   
    10     3    28 1   
    11     4     5 1   
    12     4    21 1   
    13     4    22 1   
    14     4    29 1   
    15     5    23 1   
    16     5    30 1   
    17     5    31 1   
    18     6    27 ar  
    19     6    32 1   
    20     7    33 1   
    21     7    34 1   
    22     7    35 1   
    23     7    54 1   
    24     8     9 ar  
    25     8    13 ar  
    26     8    54 1   
    27     9    10 ar  
    28     9    53 1   
    29    10    11 ar  
    30    10    38 1   
    31    11    12 ar  
    32    11    14 1   
    33    12    13 ar  
    34    12    39 1   
    35    13    40 1   
    36    14    41 1   
    37    14    42 1   
    38    15    16 ar  
    39    15    43 1   
    40    16    19 1   
    41    17    18 1   
    42    17    44 1   
    43    17    45 1   
    44    18    19 1   
    45    19    22 1   
    46    20    21 1   
    47    20    25 1   
    48    20    46 1   
    49    21    24 1   
    50    21    47 1   
    51    23    48 1   
    52    24    49 1   
    53    25    50 1   
    54    26    51 1   
    55    27    52 1   
    56    36    54 1   
    57    37    54 1   
@<TRIPOS>SUBSTRUCTURE
     1 RT2         1 TEMP              0 ****  ****    0 ROOT
