@<TRIPOS>MOLECULE
RT3
   49    51     1     0     0
SMALL
bcc


@<TRIPOS>ATOM
      1 O30          8.1950     0.9070    -0.0190 o          1 RT3      -0.612800
      2 S23          7.5480    -0.3960     0.0160 sy         1 RT3       1.273200
      3 O26          7.9500    -1.4000    -0.9580 o          1 RT3      -0.612800
      4 N29          7.6720    -0.9240     1.5750 n8         1 RT3      -0.890700
      5 C19          5.7970    -0.1790    -0.1300 ca         1 RT3      -0.284500
      6 C20          5.2320     0.9980     0.3340 ca         1 RT3       0.009000
      7 C21          3.8670     1.1690     0.2220 ca         1 RT3      -0.043600
      8 CL22         3.1610     2.6290     0.8160 cl         1 RT3      -0.099400
      9 C18          5.0180    -1.1670    -0.7110 ca         1 RT3      -0.012000
     10 C17          3.6520    -0.9800    -0.8220 ca         1 RT3      -0.154000
     11 C16          3.0510     0.1890    -0.3570 ca         1 RT3       0.128600
     12 N15          1.6850     0.4240    -0.4810 ns         1 RT3      -0.482100
     13 C14          0.6990    -0.5030    -0.3430 c          1 RT3       0.691100
     14 O29          0.8910    -1.6670    -0.0670 o          1 RT3      -0.548100
     15 C13         -0.6820     0.0620    -0.5880 c3         1 RT3      -0.091300
     16 S12         -1.8670    -1.0120     0.2530 ss         1 RT3      -0.239700
     17 C11         -3.3480    -0.0510    -0.0580 c          1 RT3       0.703700
     18 O28         -3.3080     0.9450    -0.7440 o          1 RT3      -0.575100
     19 N2          -4.4670    -0.5290     0.5470 n          1 RT3      -0.365000
     20 C1          -4.5590    -1.8650     1.1260 c6         1 RT3       0.098000
     21 C3          -5.7250     0.0740     0.2770 ca         1 RT3       0.037600
     22 C7          -5.9040     1.4510     0.3840 ca         1 RT3      -0.109000
     23 C4          -6.8080    -0.7460    -0.0470 ca         1 RT3      -0.094300
     24 C5          -6.7010    -2.2500    -0.0820 c6         1 RT3      -0.029100
     25 C6          -5.2870    -2.7720     0.1510 c6         1 RT3      -0.101400
     26 C10         -8.0410    -0.1470    -0.2930 ca         1 RT3      -0.121000
     27 C9          -8.2320     1.2260    -0.2250 ca         1 RT3      -0.076300
     28 C27         -9.5820     1.8320    -0.4790 c3         1 RT3      -0.045800
     29 C8          -7.1390     2.0170     0.1260 ca         1 RT3      -0.119000
     30 H129         7.3700    -1.8860     1.6880 hn         1 RT3       0.419300
     31 H229         8.6170    -0.8100     1.9300 hn         1 RT3       0.419300
     32 H20          5.8350     1.7750     0.7830 ha         1 RT3       0.172000
     33 H18          5.4590    -2.0760    -1.0930 ha         1 RT3       0.160000
     34 H17          3.0580    -1.7430    -1.3010 ha         1 RT3       0.163000
     35 HN15         1.4000     1.3850    -0.6010 hn         1 RT3       0.338500
     36 H113        -0.7710     1.0850    -0.2270 h1         1 RT3       0.098700
     37 H213        -0.8700     0.0690    -1.6640 h1         1 RT3       0.098700
     38 H11         -3.5720    -2.2520     1.3690 h1         1 RT3       0.068700
     39 H21         -5.1010    -1.7880     2.0710 h1         1 RT3       0.068700
     40 H7          -5.0820     2.0880     0.6780 ha         1 RT3       0.148000
     41 H15         -7.3630    -2.6470     0.6930 hc         1 RT3       0.053700
     42 H25         -7.0910    -2.6260    -1.0300 hc         1 RT3       0.053700
     43 H16         -4.7210    -2.8050    -0.7840 hc         1 RT3       0.057200
     44 H26         -5.3210    -3.7910     0.5390 hc         1 RT3       0.057200
     45 H10         -8.8820    -0.7850    -0.5470 ha         1 RT3       0.128000
     46 H127       -10.2000     1.8040     0.4210 hc         1 RT3       0.042700
     47 H227        -9.5020     2.8750    -0.7850 hc         1 RT3       0.042700
     48 H327       -10.1220     1.2920    -1.2570 hc         1 RT3       0.042700
     49 H8          -7.2550     3.0910     0.2080 ha         1 RT3       0.134000
@<TRIPOS>BOND
     1     1     2 2   
     2     2     3 2   
     3     2     4 1   
     4     2     5 1   
     5     4    30 1   
     6     4    31 1   
     7     5     6 ar  
     8     5     9 ar  
     9     6     7 ar  
    10     6    32 1   
    11     7     8 1   
    12     7    11 ar  
    13     9    10 ar  
    14     9    33 1   
    15    10    11 ar  
    16    10    34 1   
    17    11    12 1   
    18    12    13 1   
    19    12    35 1   
    20    13    14 2   
    21    13    15 1   
    22    15    16 1   
    23    15    36 1   
    24    15    37 1   
    25    16    17 1   
    26    17    18 2   
    27    17    19 1   
    28    19    20 1   
    29    19    21 1   
    30    20    25 1   
    31    20    38 1   
    32    20    39 1   
    33    21    22 ar  
    34    21    23 ar  
    35    22    29 ar  
    36    22    40 1   
    37    23    24 1   
    38    23    26 ar  
    39    24    25 1   
    40    24    41 1   
    41    24    42 1   
    42    25    43 1   
    43    25    44 1   
    44    26    27 ar  
    45    26    45 1   
    46    27    28 1   
    47    27    29 ar  
    48    28    46 1   
    49    28    47 1   
    50    28    48 1   
    51    29    49 1   
@<TRIPOS>SUBSTRUCTURE
     1 RT3         1 TEMP              0 ****  ****    0 ROOT
