@<TRIPOS>MOLECULE
RT3
   49    51     1     0     0
SMALL
No Charge or Current Charge


@<TRIPOS>ATOM
      1 O30          8.3900     0.8520    -1.1870 o          1 RT3      -0.542000
      2 S23          7.8740    -0.2180    -0.3340 sy         1 RT3       1.131600
      3 O26          8.3160    -1.6060    -0.4420 o          1 RT3      -0.542000
      4 N29          8.2910     0.2110     1.1880 n8         1 RT3      -1.001100
      5 C19          6.0850    -0.1460    -0.2570 ca         1 RT3      -0.284500
      6 C20          5.4230     1.0760    -0.4820 ca         1 RT3       0.027000
      7 C21          4.0210     1.1410    -0.4250 ca         1 RT3       0.048000
      8 Cl22         3.2320     2.6940    -0.7140 cl         1 RT3      -0.191000
      9 C18          5.3320    -1.3030     0.0250 ca         1 RT3       0.006000
     10 C17          3.9290    -1.2350     0.0820 ca         1 RT3      -0.136000
     11 C16          3.2550    -0.0120    -0.1410 ca         1 RT3       0.036000
     12 N15          1.8370     0.1190    -0.0980 ns         1 RT3      -0.156000
     13 C14          0.8190    -0.7770     0.1980 c          1 RT3       0.624100
     14 O29          1.0040    -1.9470     0.5140 o          1 RT3      -0.548100
     15 C13         -0.5850    -0.1570     0.0970 c3         1 RT3      -0.043400
     16 S12         -1.9770    -1.3400     0.4830 ss         1 RT3      -0.287600
     17 C11         -3.4230    -0.2430     0.2550 c          1 RT3       0.636700
     18 O28         -3.2690     0.9260    -0.0760 o          1 RT3      -0.575100
     19 N2          -4.7050    -0.8450     0.4670 n          1 RT3      -0.205400
     20 C1          -4.8790    -2.3190     0.5880 c6         1 RT3       0.098000
     21 C3          -5.9560    -0.1080     0.4120 ca         1 RT3      -0.055000
     22 C7          -6.0270     1.2600     0.7630 ca         1 RT3      -0.091000
     23 C4          -7.0810    -0.6980    -0.2230 ca         1 RT3      -0.094300
     24 C5          -7.0800    -2.1720    -0.6550 c6         1 RT3      -0.029100
     25 C6          -5.6830    -2.8290    -0.6220 c6         1 RT3      -0.101400
     26 C10         -8.2590     0.0500    -0.4150 ca         1 RT3      -0.103000
     27 C9          -8.3290     1.3970    -0.0240 ca         1 RT3      -0.076300
     28 C27         -9.6070     2.1940    -0.2350 c3         1 RT3      -0.045800
     29 C8          -7.2050     1.9980     0.5660 ca         1 RT3      -0.101000
     30 H129         7.4710    -0.0620     1.7250 hn         1 RT3       0.474500
     31 H229         8.9770    -0.5070     1.4110 hn         1 RT3       0.474500
     32 H20          5.9890     1.9810    -0.7010 ha         1 RT3       0.154000
     33 H18          5.8260    -2.2590     0.1980 ha         1 RT3       0.142000
     34 H17          3.3880    -2.1500     0.2960 ha         1 RT3       0.145000
     35 HN15         1.5130     1.0490    -0.3310 hn         1 RT3       0.172000
     36 H113        -0.6270     0.6910     0.7910 h1         1 RT3       0.098700
     37 H213        -0.7090     0.2280    -0.9220 h1         1 RT3       0.098700
     38 H11         -3.9400    -2.8780     0.6500 h1         1 RT3       0.068700
     39 H21         -5.4340    -2.5340     1.5130 h1         1 RT3       0.068700
     40 H7          -5.1810     1.7590     1.2280 ha         1 RT3       0.130000
     41 H15         -7.7500    -2.7280     0.0160 hc         1 RT3       0.053700
     42 H25         -7.5080    -2.2730    -1.6620 hc         1 RT3       0.053700
     43 H16         -5.1370    -2.5910    -1.5450 hc         1 RT3       0.057200
     44 H26         -5.7800    -3.9230    -0.5840 hc         1 RT3       0.057200
     45 H10         -9.1250    -0.4210    -0.8750 ha         1 RT3       0.110000
     46 H127       -10.2790     2.0900     0.6250 hc         1 RT3       0.042700
     47 H227        -9.3960     3.2620    -0.3680 hc         1 RT3       0.042700
     48 H327       -10.1470     1.8530    -1.1270 hc         1 RT3       0.042700
     49 H8          -7.2410     3.0420     0.8690 ha         1 RT3       0.116000
@<TRIPOS>BOND
     1     1     2 2   
     2     2     3 2   
     3     2     4 1   
     4     2     5 1   
     5     4    30 1   
     6     4    31 1   
     7     5     6 ar  
     8     5     9 ar  
     9     6     7 ar  
    10     6    32 1   
    11     7     8 1   
    12     7    11 ar  
    13     9    10 ar  
    14     9    33 1   
    15    10    11 ar  
    16    10    34 1   
    17    11    12 1   
    18    12    13 1   
    19    12    35 1   
    20    13    14 2   
    21    13    15 1   
    22    15    16 1   
    23    15    36 1   
    24    15    37 1   
    25    16    17 1   
    26    17    18 2   
    27    17    19 1   
    28    19    20 1   
    29    19    21 1   
    30    20    25 1   
    31    20    38 1   
    32    20    39 1   
    33    21    22 ar  
    34    21    23 ar  
    35    22    29 ar  
    36    22    40 1   
    37    23    24 1   
    38    23    26 ar  
    39    24    25 1   
    40    24    41 1   
    41    24    42 1   
    42    25    43 1   
    43    25    44 1   
    44    26    27 ar  
    45    26    45 1   
    46    27    28 1   
    47    27    29 ar  
    48    28    46 1   
    49    28    47 1   
    50    28    48 1   
    51    29    49 1   
@<TRIPOS>SUBSTRUCTURE
     1 RT3         1 TEMP              0 ****  ****    0 ROOT
