@<TRIPOS>MOLECULE
RT4
   53    57     1     0     0
SMALL
abcg2


@<TRIPOS>ATOM
      1 N1         -19.7340     8.2730    29.2020 ns         1 RT4      -0.468900
      2 N3         -16.3930     5.1000    26.7790 nb         1 RT4      -0.652000
      3 C4         -22.1900     6.5720    30.9890 c          1 RT4       0.581600
      4 C5         -22.1470     8.5410    29.5610 c3         1 RT4       0.012000
      5 C6         -20.7860     9.1020    29.1510 c          1 RT4       0.580100
      6 C7         -18.4130     8.6920    28.8350 cx         1 RT4       0.046700
      7 C8         -17.4900     9.2470    29.8870 cx         1 RT4      -0.137400
      8 C10        -22.6230     6.3000    28.5780 c6         1 RT4       0.114000
      9 C13        -18.7580     5.5170    26.7580 ca         1 RT4      -0.098000
     10 C15        -16.2030     6.2030    26.0920 ca         1 RT4       0.361900
     11 C17        -16.9950     8.2570    24.9630 ca         1 RT4      -0.078000
     12 C20        -19.6330     7.5890    25.6560 ca         1 RT4      -0.113000
     13 C21        -18.5820     6.7180    26.0240 ca         1 RT4      -0.016000
     14 C22        -22.2990     4.2780    29.9570 ca         1 RT4      -0.038300
     15 O2         -19.7040     5.2100    29.3980 o          1 RT4      -0.572100
     16 C12        -20.4640     5.0640    28.4470 c          1 RT4       0.603100
     17 N2         -20.0600     5.1170    27.1550 ns         1 RT4      -0.155000
     18 C19        -19.3580     8.7430    24.9660 ca         1 RT4      -0.075000
     19 C18        -18.0330     9.0820    24.6130 ca         1 RT4      -0.108000
     20 C16        -17.2460     7.0630    25.6770 ca         1 RT4      -0.095000
     21 C14        -17.6660     4.7630    27.1020 ca         1 RT4       0.346900
     22 C11        -21.9770     4.9120    28.6340 c6         1 RT4      -0.116400
     23 C3         -22.4000     5.0980    31.0840 ca         1 RT4      -0.124600
     24 C2         -22.6660     4.5310    32.3300 ca         1 RT4      -0.043000
     25 C1         -22.8390     3.1620    32.4610 ca         1 RT4      -0.105000
     26 C23        -22.4590     2.9040    30.0800 ca         1 RT4      -0.102000
     27 C          -22.7310     2.3630    31.3290 ca         1 RT4       0.144000
     28 CL         -22.9430     0.6350    31.4790 cl         1 RT4      -0.197000
     29 N          -22.2330     7.1050    29.7370 n          1 RT4      -0.421800
     30 O1         -20.7070    10.2830    28.8110 o          1 RT4      -0.615100
     31 C9         -17.2640     7.8690    29.3160 cx         1 RT4      -0.137400
     32 H1         -19.8700     7.3080    29.4730 hn         1 RT4       0.342500
     33 H2         -22.8620     8.8520    28.7990 h1         1 RT4       0.086700
     34 H3         -22.4210     9.0310    30.4950 h1         1 RT4       0.086700
     35 H4         -18.3500     9.1210    27.8440 h1         1 RT4       0.089700
     36 H5         -16.8200    10.0460    29.5980 hc         1 RT4       0.079450
     37 H6         -17.8800     9.3100    30.8940 hc         1 RT4       0.079450
     38 H7         -22.3120     6.8300    27.6810 h1         1 RT4       0.056200
     39 H8         -23.7110     6.1880    28.5440 h1         1 RT4       0.056200
     40 H9         -15.1790     6.4610    25.8370 h4         1 RT4       0.024100
     41 H10        -15.9740     8.5090    24.7060 ha         1 RT4       0.121000
     42 H11        -20.6510     7.3520    25.9320 ha         1 RT4       0.107000
     43 H12        -20.7690     5.0590    26.4370 hn         1 RT4       0.155000
     44 H13        -20.1670     9.4100    24.6950 ha         1 RT4       0.122000
     45 H14        -17.8430     9.9990    24.0700 ha         1 RT4       0.123000
     46 H15        -17.7990     3.8470    27.6640 h4         1 RT4       0.035100
     47 H16        -22.3840     4.3150    27.8170 hc         1 RT4       0.078700
     48 H17        -22.7380     5.1730    33.1970 ha         1 RT4       0.146000
     49 H18        -23.0530     2.7200    33.4240 ha         1 RT4       0.138000
     50 H19        -22.3740     2.2640    29.2120 ha         1 RT4       0.131000
     51 H20        -17.4950     7.0200    29.9450 hc         1 RT4       0.079450
     52 H21        -16.4410     7.7170    28.6320 hc         1 RT4       0.079450
     53 O          -21.9780     7.2590    31.9880 o          1 RT4      -0.539000
@<TRIPOS>BOND
     1     1     5 1   
     2     1     6 1   
     3     1    32 1   
     4     2    10 ar  
     5     2    21 ar  
     6     3    23 1   
     7     3    29 1   
     8     3    53 2   
     9     4     5 1   
    10     4    29 1   
    11     4    33 1   
    12     4    34 1   
    13     5    30 2   
    14     6     7 1   
    15     6    31 1   
    16     6    35 1   
    17     7    31 1   
    18     7    36 1   
    19     7    37 1   
    20     8    22 1   
    21     8    29 1   
    22     8    38 1   
    23     8    39 1   
    24     9    13 ar  
    25     9    17 1   
    26     9    21 ar  
    27    10    20 ar  
    28    10    40 1   
    29    11    19 ar  
    30    11    20 ar  
    31    11    41 1   
    32    12    13 ar  
    33    12    18 ar  
    34    12    42 1   
    35    13    20 ar  
    36    14    22 1   
    37    14    23 ar  
    38    14    26 ar  
    39    15    16 2   
    40    16    17 1   
    41    16    22 1   
    42    17    43 1   
    43    18    19 ar  
    44    18    44 1   
    45    19    45 1   
    46    21    46 1   
    47    22    47 1   
    48    23    24 ar  
    49    24    25 ar  
    50    24    48 1   
    51    25    27 ar  
    52    25    49 1   
    53    26    27 ar  
    54    26    50 1   
    55    27    28 1   
    56    31    51 1   
    57    31    52 1   
@<TRIPOS>SUBSTRUCTURE
     1 RT4         1 TEMP              0 ****  ****    0 ROOT
