@<TRIPOS>MOLECULE
RT4
   53    57     1     0     0
SMALL
No Charge or Current Charge


@<TRIPOS>ATOM
      1 N1         -19.8620     8.4420    29.5160 ns         1 RT4      -0.468900
      2 N3         -16.2990     5.1660    26.9210 nb         1 RT4      -0.652000
      3 C4         -22.5520     6.4250    31.3850 c          1 RT4       0.581600
      4 C5         -22.2170     8.6610    30.2360 c3         1 RT4       0.012000
      5 C6         -20.9680     9.2640    29.5600 c          1 RT4       0.580100
      6 C7         -18.6160     8.7850    28.8880 cx         1 RT4       0.046700
      7 C8         -17.5570     9.4340    29.7450 cx         1 RT4      -0.137400
      8 C10        -22.5930     6.5410    28.8880 c6         1 RT4       0.114000
      9 C13        -18.6490     5.8210    26.8780 ca         1 RT4      -0.098000
     10 C15        -16.0590     6.0690    25.9450 ca         1 RT4       0.361900
     11 C17        -16.7500     7.8110    24.3720 ca         1 RT4      -0.078000
     12 C20        -19.3980     7.5780    25.2990 ca         1 RT4      -0.113000
     13 C21        -18.3890     6.7580    25.8510 ca         1 RT4      -0.016000
     14 C22        -22.3220     4.2940    30.0080 ca         1 RT4      -0.038300
     15 O2         -19.6340     5.0640    29.5770 o          1 RT4      -0.572100
     16 C12        -20.4020     5.2770    28.6460 c          1 RT4       0.603100
     17 N2         -19.9690     5.6570    27.3850 ns         1 RT4      -0.155000
     18 C19        -19.0810     8.5040    24.2910 ca         1 RT4      -0.075000
     19 C18        -17.7610     8.6200    23.8270 ca         1 RT4      -0.108000
     20 C16        -17.0630     6.8820    25.3840 ca         1 RT4      -0.095000
     21 C14        -17.5680     5.0540    27.3760 ca         1 RT4       0.346900
     22 C11        -21.9300     5.1540    28.8050 c6         1 RT4      -0.116400
     23 C3         -22.6180     4.9170    31.2440 ca         1 RT4      -0.124600
     24 C2         -22.9580     4.1130    32.3550 ca         1 RT4      -0.043000
     25 C1         -23.0090     2.7130    32.2300 ca         1 RT4      -0.105000
     26 C23        -22.3740     2.8930    29.8900 ca         1 RT4      -0.102000
     27 C          -22.7180     2.1060    31.0000 ca         1 RT4       0.144000
     28 Cl         -22.7810     0.3550    30.8480 cl         1 RT4      -0.197000
     29 N          -22.3210     7.1650    30.2000 n          1 RT4      -0.421800
     30 O1         -20.9670    10.3820    29.0610 o          1 RT4      -0.615100
     31 C9         -17.3890     8.0060    29.2900 cx         1 RT4      -0.137400
     32 H1         -19.9600     7.5430    29.9730 hn         1 RT4       0.342500
     33 H2         -23.0990     9.0920    29.7460 h1         1 RT4       0.086700
     34 H3         -22.2040     9.0200    31.2710 h1         1 RT4       0.086700
     35 H4         -18.7050     9.1010    27.8470 h1         1 RT4       0.089700
     36 H5         -16.9310    10.1920    29.2820 hc         1 RT4       0.079450
     37 H6         -17.7860     9.6110    30.7930 hc         1 RT4       0.079450
     38 H7         -22.2380     7.1870    28.0720 h1         1 RT4       0.056200
     39 H8         -23.6810     6.4330    28.7720 h1         1 RT4       0.056200
     40 H9         -15.0270     6.1430    25.6030 h4         1 RT4       0.024100
     41 H10        -15.7290     7.9070    24.0100 ha         1 RT4       0.121000
     42 H11        -20.4260     7.5140    25.6440 ha         1 RT4       0.107000
     43 H12        -20.7050     5.8460    26.7170 hn         1 RT4       0.155000
     44 H13        -19.8620     9.1350    23.8690 ha         1 RT4       0.122000
     45 H14        -17.5200     9.3380    23.0460 ha         1 RT4       0.123000
     46 H15        -17.7200     4.3020    28.1490 h4         1 RT4       0.035100
     47 H16        -22.3100     4.7330    27.8640 hc         1 RT4       0.078700
     48 H17        -23.1840     4.5700    33.3160 ha         1 RT4       0.146000
     49 H18        -23.2740     2.1000    33.0880 ha         1 RT4       0.138000
     50 H19        -22.1450     2.4120    28.9430 ha         1 RT4       0.131000
     51 H20        -17.5010     7.2180    30.0320 hc         1 RT4       0.079450
     52 H21        -16.6460     7.8050    28.5230 hc         1 RT4       0.079450
     53 O          -22.6420     6.9710    32.4760 o          1 RT4      -0.539000
@<TRIPOS>BOND
     1     1     5 1   
     2     1     6 1   
     3     1    32 1   
     4     2    10 ar  
     5     2    21 ar  
     6     3    23 1   
     7     3    29 1   
     8     3    53 2   
     9     4     5 1   
    10     4    29 1   
    11     4    33 1   
    12     4    34 1   
    13     5    30 2   
    14     6     7 1   
    15     6    31 1   
    16     6    35 1   
    17     7    31 1   
    18     7    36 1   
    19     7    37 1   
    20     8    22 1   
    21     8    29 1   
    22     8    38 1   
    23     8    39 1   
    24     9    13 ar  
    25     9    17 1   
    26     9    21 ar  
    27    10    20 ar  
    28    10    40 1   
    29    11    19 ar  
    30    11    20 ar  
    31    11    41 1   
    32    12    13 ar  
    33    12    18 ar  
    34    12    42 1   
    35    13    20 ar  
    36    14    22 1   
    37    14    23 ar  
    38    14    26 ar  
    39    15    16 2   
    40    16    17 1   
    41    16    22 1   
    42    17    43 1   
    43    18    19 ar  
    44    18    44 1   
    45    19    45 1   
    46    21    46 1   
    47    22    47 1   
    48    23    24 ar  
    49    24    25 ar  
    50    24    48 1   
    51    25    27 ar  
    52    25    49 1   
    53    26    27 ar  
    54    26    50 1   
    55    27    28 1   
    56    31    51 1   
    57    31    52 1   
@<TRIPOS>SUBSTRUCTURE
     1 RT4         1 TEMP              0 ****  ****    0 ROOT
