@<TRIPOS>MOLECULE
RT5
   43    47     1     0     0
SMALL
No Charge or Current Charge


@<TRIPOS>ATOM
      1 C1         -50.0280   -29.1150     0.9750 ca         1 RT5       0.418900
      2 C2         -50.0060   -28.5880     3.1650 ca         1 RT5       0.227500
      3 C3         -48.6450   -28.8950     3.2250 cp         1 RT5      -0.274000
      4 O1         -43.9680   -33.7720     1.7240 o          1 RT5      -0.702500
      5 O2         -44.2070   -32.7410     3.5710 o          1 RT5      -0.702500
      6 C10        -48.0210   -29.3660     2.0500 ca         1 RT5       0.473900
      7 C11        -45.8220   -29.6460     0.8140 c5         1 RT5       0.229800
      8 C12        -44.5810   -30.5470     1.0270 cy         1 RT5      -0.102000
      9 C13        -45.3530   -31.7780     1.6430 c5         1 RT5       0.059000
     10 C14        -46.2790   -31.0710     2.6970 c5         1 RT5       0.195800
     11 C15        -44.4180   -32.8300     2.3670 c          1 RT5       0.724000
     12 C16        -43.3540   -29.9070     1.7860 cy         1 RT5      -0.064900
     13 C17        -42.4200   -30.7770     0.8890 cy         1 RT5      -0.094400
     14 C18        -43.5700   -30.7360    -0.1640 cy         1 RT5      -0.064900
     15 C4         -48.1580   -28.6230     4.5770 cp         1 RT5      -0.026000
     16 C5         -49.2450   -28.2030     5.3350 ca         1 RT5      -0.011200
     17 C6         -49.1480   -27.8310     6.6780 ca         1 RT5      -0.183000
     18 C7         -47.8690   -27.8870     7.2670 ca         1 RT5       0.163000
     19 C8         -46.7380   -28.2800     6.5140 ca         1 RT5      -0.169000
     20 C9         -46.8710   -28.6420     5.1530 ca         1 RT5      -0.044000
     21 F1         -47.7180   -27.5360     8.5630 f          1 RT5      -0.199000
     22 F2         -46.1390   -32.4440     0.6750 f          1 RT5      -0.284000
     23 N1         -50.7220   -29.2160    -0.1780 nv         1 RT5      -1.054900
     24 N2         -50.7240   -28.6890     2.0390 nb         1 RT5      -0.329000
     25 N3         -50.3420   -28.1970     4.4660 na         1 RT5      -0.343300
     26 N4         -46.6940   -29.8280     1.9900 nh         1 RT5      -0.752300
     27 N5         -48.7350   -29.4620     0.9080 nb         1 RT5      -0.353000
     28 H8         -45.5470   -28.5890     0.6970 h1         1 RT5       0.052700
     29 H7         -46.3530   -29.9280    -0.1070 h1         1 RT5       0.052700
     30 H9         -45.7400   -30.8330     3.6220 h1         1 RT5       0.075700
     31 H10        -47.1350   -31.7080     2.9640 h1         1 RT5       0.075700
     32 H12        -43.2960   -30.0980     2.8620 hc         1 RT5       0.051700
     33 H11        -43.2400   -28.8280     1.6270 hc         1 RT5       0.051700
     34 H13        -42.1890   -31.7710     1.2860 hc         1 RT5       0.048700
     35 H14        -41.4810   -30.3040     0.5840 hc         1 RT5       0.048700
     36 H16        -43.5170   -29.8800    -0.8480 hc         1 RT5       0.051700
     37 H15        -43.7000   -31.6440    -0.7620 hc         1 RT5       0.051700
     38 H4         -50.0160   -27.5030     7.2440 ha         1 RT5       0.123000
     39 H5         -45.7580   -28.2910     6.9830 ha         1 RT5       0.131000
     40 H6         -45.9970   -28.9020     4.5650 ha         1 RT5       0.142000
     41 H2         -50.3060   -29.7450    -0.9390 hn         1 RT5       0.476000
     42 H1         -51.7370   -29.1910    -0.1340 hn         1 RT5       0.476000
     43 H3         -51.2790   -27.9290     4.7380 hn         1 RT5       0.354000
@<TRIPOS>BOND
     1     1    23 1   
     2     1    24 ar  
     3     1    27 ar  
     4     2     3 ar  
     5     2    24 ar  
     6     2    25 1   
     7     3     6 ar  
     8     3    15 1   
     9     4    11 1   
    10     5    11 1   
    11     6    26 1   
    12     6    27 ar  
    13     7     8 1   
    14     7    26 1   
    15     7    28 1   
    16     7    29 1   
    17     8     9 1   
    18     8    12 1   
    19     8    14 1   
    20     9    10 1   
    21     9    11 1   
    22     9    22 1   
    23    10    26 1   
    24    10    30 1   
    25    10    31 1   
    26    12    13 1   
    27    12    32 1   
    28    12    33 1   
    29    13    14 1   
    30    13    34 1   
    31    13    35 1   
    32    14    36 1   
    33    14    37 1   
    34    15    16 ar  
    35    15    20 ar  
    36    16    17 ar  
    37    16    25 1   
    38    17    18 ar  
    39    17    38 1   
    40    18    19 ar  
    41    18    21 1   
    42    19    20 ar  
    43    19    39 1   
    44    20    40 1   
    45    23    41 1   
    46    23    42 1   
    47    25    43 1   
@<TRIPOS>SUBSTRUCTURE
     1 RT5         1 TEMP              0 ****  ****    0 ROOT
