@<TRIPOS>MOLECULE
RT5
   43    47     1     0     0
SMALL
abcg2


@<TRIPOS>ATOM
      1 C1         -49.7570   -28.6800     0.8980 ca         1 RT5       0.418900
      2 C2         -49.8420   -28.6130     3.1220 ca         1 RT5       0.227500
      3 C3         -48.4730   -28.9360     3.2670 cp         1 RT5      -0.274000
      4 O1         -43.6940   -33.4300     2.5880 o          1 RT5      -0.702500
      5 O2         -43.4120   -31.6000     3.8580 o          1 RT5      -0.702500
      6 C10        -47.8150   -29.2320     2.0430 ca         1 RT5       0.473900
      7 C11        -45.9490   -29.9620     0.6230 c5         1 RT5       0.229800
      8 C12        -44.6640   -30.7150     0.9400 cy         1 RT5      -0.102000
      9 C13        -45.0890   -31.5360     2.1660 c5         1 RT5       0.059000
     10 C14        -45.8960   -30.5290     2.9660 c5         1 RT5       0.195800
     11 C15        -43.9630   -32.2640     2.9480 c          1 RT5       0.724000
     12 C16        -43.3690   -29.8720     1.1410 cy         1 RT5      -0.064900
     13 C17        -42.6010   -30.8800     0.2500 cy         1 RT5      -0.094400
     14 C18        -43.9560   -31.4810    -0.2010 cy         1 RT5      -0.064900
     15 C4         -48.1710   -28.8060     4.6850 cp         1 RT5      -0.026000
     16 C5         -49.4020   -28.4730     5.3190 ca         1 RT5      -0.011200
     17 C6         -49.5160   -28.2430     6.6840 ca         1 RT5      -0.183000
     18 C7         -48.3470   -28.3290     7.4150 ca         1 RT5       0.163000
     19 C8         -47.1120   -28.6130     6.8500 ca         1 RT5      -0.169000
     20 C9         -47.0230   -28.8460     5.4810 ca         1 RT5      -0.044000
     21 F1         -48.4080   -28.1020     8.7570 f          1 RT5      -0.199000
     22 F2         -46.0120   -32.5120     1.6850 f          1 RT5      -0.284000
     23 N1         -50.3450   -28.4580    -0.3160 nv         1 RT5      -1.054900
     24 N2         -50.5220   -28.4980     1.9840 nb         1 RT5      -0.329000
     25 N3         -50.3870   -28.3860     4.3560 na         1 RT5      -0.343300
     26 N4         -46.5520   -29.7080     1.9400 nh         1 RT5      -0.752300
     27 N5         -48.4680   -29.0380     0.8810 nb         1 RT5      -0.353000
     28 H8         -45.7630   -29.0290     0.0900 h1         1 RT5       0.052700
     29 H7         -46.6150   -30.5730     0.0090 h1         1 RT5       0.052700
     30 H9         -45.2030   -29.9520     3.5720 h1         1 RT5       0.075700
     31 H10        -46.6240   -31.0160     3.6120 h1         1 RT5       0.075700
     32 H12        -43.0190   -29.7480     2.1630 hc         1 RT5       0.051700
     33 H11        -43.4710   -28.8930     0.6730 hc         1 RT5       0.051700
     34 H13        -42.0110   -31.5840     0.8350 hc         1 RT5       0.048700
     35 H14        -41.9710   -30.4560    -0.5310 hc         1 RT5       0.048700
     36 H16        -44.2720   -31.1150    -1.1790 hc         1 RT5       0.051700
     37 H15        -44.0530   -32.5650    -0.1790 hc         1 RT5       0.051700
     38 H4         -50.4570   -27.9900     7.1530 ha         1 RT5       0.123000
     39 H5         -46.2310   -28.6410     7.4770 ha         1 RT5       0.131000
     40 H6         -46.0520   -29.0380     5.0560 ha         1 RT5       0.142000
     41 H2         -49.8870   -28.8570    -1.1200 hn         1 RT5       0.476000
     42 H1         -51.3520   -28.4510    -0.3370 hn         1 RT5       0.476000
     43 H3         -51.3410   -28.1020     4.5140 hn         1 RT5       0.354000
@<TRIPOS>BOND
     1     1    23 1   
     2     1    24 ar  
     3     1    27 ar  
     4     2     3 ar  
     5     2    24 ar  
     6     2    25 1   
     7     3     6 ar  
     8     3    15 1   
     9     4    11 1   
    10     5    11 1   
    11     6    26 1   
    12     6    27 ar  
    13     7     8 1   
    14     7    26 1   
    15     7    28 1   
    16     7    29 1   
    17     8     9 1   
    18     8    12 1   
    19     8    14 1   
    20     9    10 1   
    21     9    11 1   
    22     9    22 1   
    23    10    26 1   
    24    10    30 1   
    25    10    31 1   
    26    12    13 1   
    27    12    32 1   
    28    12    33 1   
    29    13    14 1   
    30    13    34 1   
    31    13    35 1   
    32    14    36 1   
    33    14    37 1   
    34    15    16 ar  
    35    15    20 ar  
    36    16    17 ar  
    37    16    25 1   
    38    17    18 ar  
    39    17    38 1   
    40    18    19 ar  
    41    18    21 1   
    42    19    20 ar  
    43    19    39 1   
    44    20    40 1   
    45    23    41 1   
    46    23    42 1   
    47    25    43 1   
@<TRIPOS>SUBSTRUCTURE
     1 RT5         1 TEMP              0 ****  ****    0 ROOT
