@<TRIPOS>MOLECULE
RT6
   62    64     1     0     0
SMALL
abcg2


@<TRIPOS>ATOM
      1 C02         26.1920   -26.3240   343.2880 c6         1 RT6       0.182300
      2 C03         25.1980   -26.0430   344.4080 c6         1 RT6       0.134300
      3 C05         25.3010   -24.5710   344.8250 c6         1 RT6       0.184500
      4 C07         24.5730   -24.3430   347.1080 c6         1 RT6       0.391300
      5 C08         23.4420   -25.0780   347.8290 c6         1 RT6       0.151300
      6 C10         22.1780   -24.2300   347.8710 c6         1 RT6       0.140300
      7 C12         22.5070   -22.8660   348.4650 c6         1 RT6       0.109300
      8 C14         23.6440   -22.2240   347.6650 c6         1 RT6       0.147300
      9 C15         24.0850   -20.8770   348.1910 c3         1 RT6       0.163600
     10 C18         25.2020   -23.6410   343.6410 c2         1 RT6      -0.091400
     11 C19         24.8330   -22.2080   343.8900 c3         1 RT6       0.202800
     12 C21         25.5070   -24.0560   342.4130 c2         1 RT6      -0.234200
     13 C22         25.9040   -25.4510   342.0450 c6         1 RT6       0.188700
     14 C24         23.5330   -25.9020   341.2740 c6         1 RT6       0.186500
     15 C25         23.0230   -24.8760   340.2620 c6         1 RT6      -0.087400
     16 C26         21.5170   -24.6630   340.3820 c6         1 RT6      -0.071900
     17 C27         20.7570   -25.9770   340.2390 c6         1 RT6      -0.076400
     18 C28         21.2590   -27.0060   341.2460 c6         1 RT6      -0.071900
     19 C29         22.7660   -27.2150   341.1270 c6         1 RT6      -0.087400
     20 N23         24.9680   -26.1470   341.1620 n7         1 RT6      -0.918400
     21 O01         26.2000   -27.6710   342.9090 oh         1 RT6      -0.648000
     22 O04         25.4780   -26.9010   345.4850 oh         1 RT6      -0.717000
     23 O06         24.2680   -24.2710   345.7500 os         1 RT6      -0.486000
     24 O09         23.2360   -26.3080   347.1700 oh         1 RT6      -0.723000
     25 O11         21.2320   -24.9280   348.6430 oh         1 RT6      -0.668000
     26 O13         21.3340   -22.0840   348.4130 oh         1 RT6      -0.727000
     27 O16         24.4520   -20.9870   349.5450 oh         1 RT6      -0.713000
     28 O17         24.7730   -23.0850   347.6710 os         1 RT6      -0.446000
     29 O20         25.8480   -21.6030   344.6670 oh         1 RT6      -0.652000
     30 H1          27.1920   -26.0610   343.6590 h1         1 RT6       0.066700
     31 H2          24.1770   -26.2170   344.0360 h1         1 RT6       0.047700
     32 H4          26.2800   -24.4170   345.3030 h1         1 RT6       0.072700
     33 H6          25.5150   -24.8790   347.2680 h2         1 RT6       0.094700
     34 H7          23.7770   -25.2450   348.8620 h1         1 RT6       0.058700
     35 H8          21.8120   -24.0840   346.8430 h1         1 RT6       0.066700
     36 H9          22.8360   -23.0150   349.5020 h1         1 RT6       0.070700
     37 H10         23.2940   -22.0530   346.6370 h1         1 RT6       0.057700
     38 H11         24.9180   -20.5220   347.5680 h1         1 RT6       0.028700
     39 H12         23.2620   -20.1680   348.0420 h1         1 RT6       0.028700
     40 H14         24.7140   -21.7010   342.9250 h1         1 RT6       0.029700
     41 H15         23.8630   -22.1600   344.3950 h1         1 RT6       0.029700
     42 H16         25.4740   -23.3420   341.5960 ha         1 RT6       0.175000
     43 H18         26.8400   -25.3910   341.4800 h1         1 RT6       0.065700
     44 H19         23.3310   -25.5090   342.2750 h1         1 RT6       0.062700
     45 H20         23.5500   -23.9280   340.3900 hc         1 RT6       0.042700
     46 H21         21.2920   -24.2210   341.3590 hc         1 RT6       0.040950
     47 H22         19.6850   -25.8110   340.3690 hc         1 RT6       0.039200
     48 H23         20.8920   -26.3650   339.2240 hc         1 RT6       0.039200
     49 H24         21.0250   -26.6600   342.2590 hc         1 RT6       0.040950
     50 H25         20.7370   -27.9560   341.1140 hc         1 RT6       0.040950
     51 H26         23.0020   -27.6540   340.1510 hc         1 RT6       0.042700
     52 H27         23.1170   -27.9220   341.8840 hc         1 RT6       0.042700
     53 H28         25.2670   -26.0750   340.2000 hn         1 RT6       0.430000
     54 H30         25.6400   -27.6800   342.1070 ho         1 RT6       0.467000
     55 H31         24.7140   -26.8900   346.0820 ho         1 RT6       0.526000
     56 H32         22.7320   -26.8920   347.7460 ho         1 RT6       0.528000
     57 H33         20.4090   -24.4280   348.6310 ho         1 RT6       0.462000
     58 H34         21.3660   -21.4300   349.1160 ho         1 RT6       0.513000
     59 H35         24.6850   -20.1110   349.8660 ho         1 RT6       0.505000
     60 H36         25.4890   -20.8000   345.0560 ho         1 RT6       0.439000
     61 H3          23.2580   -25.2340   339.2510 hc         1 RT6       0.042700
     62 H5          21.1800   -23.9430   339.6320 hc         1 RT6       0.040950
@<TRIPOS>BOND
     1     1     2 1   
     2     1    13 1   
     3     1    21 1   
     4     1    30 1   
     5     2     3 1   
     6     2    22 1   
     7     2    31 1   
     8     3    10 1   
     9     3    23 1   
    10     3    32 1   
    11     4     5 1   
    12     4    23 1   
    13     4    28 1   
    14     4    33 1   
    15     5     6 1   
    16     5    24 1   
    17     5    34 1   
    18     6     7 1   
    19     6    25 1   
    20     6    35 1   
    21     7     8 1   
    22     7    26 1   
    23     7    36 1   
    24     8     9 1   
    25     8    28 1   
    26     8    37 1   
    27     9    27 1   
    28     9    38 1   
    29     9    39 1   
    30    10    11 1   
    31    10    12 2   
    32    11    29 1   
    33    11    40 1   
    34    11    41 1   
    35    12    13 1   
    36    12    42 1   
    37    13    20 1   
    38    13    43 1   
    39    14    15 1   
    40    14    19 1   
    41    14    20 1   
    42    14    44 1   
    43    15    16 1   
    44    15    45 1   
    45    15    61 1   
    46    16    17 1   
    47    16    46 1   
    48    16    62 1   
    49    17    18 1   
    50    17    47 1   
    51    17    48 1   
    52    18    19 1   
    53    18    49 1   
    54    18    50 1   
    55    19    51 1   
    56    19    52 1   
    57    20    53 1   
    58    21    54 1   
    59    22    55 1   
    60    24    56 1   
    61    25    57 1   
    62    26    58 1   
    63    27    59 1   
    64    29    60 1   
@<TRIPOS>SUBSTRUCTURE
     1 RT6         1 TEMP              0 ****  ****    0 ROOT
