@<TRIPOS>MOLECULE
RT6
   62    64     1     0     0
SMALL
No Charge or Current Charge


@<TRIPOS>ATOM
      1 C02         26.1180   -26.4430   343.3240 c6         1 RT6       0.182300
      2 C03         25.1370   -26.0200   344.4660 c6         1 RT6       0.134300
      3 C05         25.3290   -24.5060   344.8260 c6         1 RT6       0.184500
      4 C07         24.5710   -24.3240   347.1630 c6         1 RT6       0.391300
      5 C08         23.4170   -25.1500   347.8310 c6         1 RT6       0.151300
      6 C10         22.1280   -24.2840   347.8780 c6         1 RT6       0.140300
      7 C12         22.4080   -22.9340   348.6000 c6         1 RT6       0.109300
      8 C14         23.5870   -22.2040   347.8740 c6         1 RT6       0.147300
      9 C15         23.9990   -20.8600   348.5630 c3         1 RT6       0.163600
     10 C18         25.3180   -23.6090   343.5820 c2         1 RT6      -0.091400
     11 C19         25.0000   -22.1380   343.8400 c3         1 RT6       0.202800
     12 C21         25.6160   -24.0910   342.3570 c2         1 RT6      -0.234200
     13 C22         25.9930   -25.5300   342.0590 c6         1 RT6       0.188700
     14 C24         23.6290   -25.9300   341.2160 c6         1 RT6       0.186500
     15 C25         23.0830   -24.9040   340.1880 c6         1 RT6      -0.087400
     16 C26         21.5540   -24.7110   340.3450 c6         1 RT6      -0.071900
     17 C27         20.8040   -26.0600   340.2220 c6         1 RT6      -0.076400
     18 C28         21.3510   -27.0970   341.2330 c6         1 RT6      -0.071900
     19 C29         22.8820   -27.2800   341.0760 c6         1 RT6      -0.087400
     20 N23         25.0880   -26.1330   341.0240 n7         1 RT6      -0.918400
     21 O01         25.8390   -27.7680   342.8550 oh         1 RT6      -0.648000
     22 O04         25.2790   -26.8710   345.6270 oh         1 RT6      -0.717000
     23 O06         24.3140   -24.0630   345.7630 os         1 RT6      -0.486000
     24 O09         23.1390   -26.3990   347.1520 oh         1 RT6      -0.723000
     25 O11         21.0640   -24.9920   348.5390 oh         1 RT6      -0.668000
     26 O13         21.2010   -22.1380   348.6280 oh         1 RT6      -0.727000
     27 O16         24.4630   -21.0240   349.9190 oh         1 RT6      -0.713000
     28 O17         24.7600   -23.0640   347.8410 os         1 RT6      -0.446000
     29 O20         25.8260   -21.2830   343.0370 oh         1 RT6      -0.652000
     30 H1          27.1460   -26.3720   343.7080 h1         1 RT6       0.066700
     31 H2          24.1140   -26.1310   344.0830 h1         1 RT6       0.047700
     32 H4          26.3170   -24.3820   345.2940 h1         1 RT6       0.072700
     33 H6          25.4990   -24.9080   347.2680 h2         1 RT6       0.094700
     34 H7          23.7240   -25.3580   348.8670 h1         1 RT6       0.058700
     35 H8          21.8320   -24.0550   346.8420 h1         1 RT6       0.066700
     36 H9          22.7310   -23.1600   349.6290 h1         1 RT6       0.070700
     37 H10         23.2880   -21.9710   346.8420 h1         1 RT6       0.057700
     38 H11         24.7880   -20.4030   347.9520 h1         1 RT6       0.028700
     39 H12         23.1410   -20.1750   348.5370 h1         1 RT6       0.028700
     40 H14         23.9390   -21.9590   343.6150 h1         1 RT6       0.029700
     41 H15         25.1550   -21.8960   344.9000 h1         1 RT6       0.029700
     42 H16         25.6280   -23.4220   341.4970 ha         1 RT6       0.175000
     43 H18         27.0020   -25.5080   341.6170 h1         1 RT6       0.065700
     44 H19         23.4230   -25.5380   342.2220 h1         1 RT6       0.062700
     45 H20         23.5840   -23.9360   340.3130 hc         1 RT6       0.042700
     46 H21         21.3370   -24.2540   341.3210 hc         1 RT6       0.040950
     47 H22         19.7290   -25.9070   340.3900 hc         1 RT6       0.039200
     48 H23         20.9080   -26.4500   339.2000 hc         1 RT6       0.039200
     49 H24         21.1220   -26.7720   342.2580 hc         1 RT6       0.040950
     50 H25         20.8440   -28.0610   341.0910 hc         1 RT6       0.040950
     51 H26         23.1010   -27.7300   340.0970 hc         1 RT6       0.042700
     52 H27         23.2410   -27.9890   341.8330 hc         1 RT6       0.042700
     53 H28         25.3320   -25.7340   340.1070 hn         1 RT6       0.430000
     54 H30         25.4130   -27.5340   341.9830 ho         1 RT6       0.467000
     55 H31         24.4440   -26.7390   346.1670 ho         1 RT6       0.526000
     56 H32         22.2270   -26.6410   347.4530 ho         1 RT6       0.528000
     57 H33         20.4130   -24.2910   348.7800 ho         1 RT6       0.462000
     58 H34         21.3230   -21.4470   349.3220 ho         1 RT6       0.513000
     59 H35         24.8380   -20.1570   350.2010 ho         1 RT6       0.505000
     60 H36         25.5650   -20.3600   343.2470 ho         1 RT6       0.439000
     61 H3          23.3060   -25.2420   339.1660 hc         1 RT6       0.042700
     62 H5          21.1860   -24.0100   339.5830 hc         1 RT6       0.040950
@<TRIPOS>BOND
     1     1     2 1   
     2     1    13 1   
     3     1    21 1   
     4     1    30 1   
     5     2     3 1   
     6     2    22 1   
     7     2    31 1   
     8     3    10 1   
     9     3    23 1   
    10     3    32 1   
    11     4     5 1   
    12     4    23 1   
    13     4    28 1   
    14     4    33 1   
    15     5     6 1   
    16     5    24 1   
    17     5    34 1   
    18     6     7 1   
    19     6    25 1   
    20     6    35 1   
    21     7     8 1   
    22     7    26 1   
    23     7    36 1   
    24     8     9 1   
    25     8    28 1   
    26     8    37 1   
    27     9    27 1   
    28     9    38 1   
    29     9    39 1   
    30    10    11 1   
    31    10    12 2   
    32    11    29 1   
    33    11    40 1   
    34    11    41 1   
    35    12    13 1   
    36    12    42 1   
    37    13    20 1   
    38    13    43 1   
    39    14    15 1   
    40    14    19 1   
    41    14    20 1   
    42    14    44 1   
    43    15    16 1   
    44    15    45 1   
    45    15    61 1   
    46    16    17 1   
    47    16    46 1   
    48    16    62 1   
    49    17    18 1   
    50    17    47 1   
    51    17    48 1   
    52    18    19 1   
    53    18    49 1   
    54    18    50 1   
    55    19    51 1   
    56    19    52 1   
    57    20    53 1   
    58    21    54 1   
    59    22    55 1   
    60    24    56 1   
    61    25    57 1   
    62    26    58 1   
    63    27    59 1   
    64    29    60 1   
@<TRIPOS>SUBSTRUCTURE
     1 RT6         1 TEMP              0 ****  ****    0 ROOT
