@<TRIPOS>MOLECULE
RT7
   46    48     1     0     0
SMALL
bcc


@<TRIPOS>ATOM
      1 CL30        -9.0980     1.4660    -0.7610 cl         1 RT7      -0.097400
      2 C4          -7.5820     0.7560    -0.3230 ca         1 RT7       0.034400
      3 C3          -6.7040     1.4810     0.4670 ca         1 RT7      -0.111000
      4 C2          -5.4970     0.9000     0.8080 ca         1 RT7       0.053400
      5 CL29        -4.4520     1.7550     1.8810 cl         1 RT7      -0.077400
      6 C5          -7.2820    -0.5260    -0.7420 ca         1 RT7      -0.117000
      7 C6          -6.0600    -1.1010    -0.4100 ca         1 RT7      -0.077300
      8 C10         -5.7910    -2.5290    -0.8170 c6         1 RT7      -0.033100
      9 C9          -4.4330    -3.0720    -0.3720 c6         1 RT7      -0.105400
     10 C8          -3.9970    -2.3990     0.9180 c6         1 RT7       0.091000
     11 N7          -3.9050    -0.9600     0.6780 n          1 RT7      -0.355000
     12 C1          -5.1440    -0.3690     0.3460 ca         1 RT7       0.037600
     13 C11         -2.7740    -0.3740     0.1790 c          1 RT7       0.690700
     14 O22         -2.7680     0.6800    -0.4110 o          1 RT7      -0.557100
     15 S12         -1.2750    -1.2830     0.5130 ss         1 RT7      -0.211700
     16 C13         -0.1070    -0.1410    -0.2560 c3         1 RT7      -0.100300
     17 C14          1.2860    -0.6760    -0.0130 c          1 RT7       0.691100
     18 O23          1.4930    -1.7380     0.5330 o          1 RT7      -0.547100
     19 N15          2.2580     0.1610    -0.4680 ns         1 RT7      -0.478100
     20 C16          3.6310    -0.0320    -0.3720 ca         1 RT7       0.130600
     21 C17          4.4700     1.0860    -0.2550 ca         1 RT7      -0.048600
     22 CL24         3.7840     2.6710    -0.1900 cl         1 RT7      -0.099400
     23 C18          5.8420     0.9550    -0.1840 ca         1 RT7       0.012000
     24 C19          6.3960    -0.3160    -0.2210 ca         1 RT7      -0.289500
     25 S25          8.1550    -0.4770    -0.1230 sy         1 RT7       1.276200
     26 N28          8.4040    -0.2270     1.4890 n8         1 RT7      -0.895700
     27 O27          8.4980    -1.8250    -0.5510 o          1 RT7      -0.613300
     28 O26          8.7790     0.6490    -0.8010 o          1 RT7      -0.613300
     29 C20          5.5950    -1.4380    -0.3420 ca         1 RT7      -0.008000
     30 C21          4.2210    -1.2940    -0.4210 ca         1 RT7      -0.159000
     31 H3          -6.9580     2.4690     0.8240 ha         1 RT7       0.166000
     32 H5          -7.9930    -1.0880    -1.3340 ha         1 RT7       0.151000
     33 H110        -6.5850    -3.1400    -0.3800 hc         1 RT7       0.058700
     34 H210        -5.9020    -2.6250    -1.8990 hc         1 RT7       0.058700
     35 H19         -4.4920    -4.1520    -0.2350 hc         1 RT7       0.059200
     36 H29         -3.6710    -2.8910    -1.1330 hc         1 RT7       0.059200
     37 H18         -4.7230    -2.5570     1.7180 h1         1 RT7       0.073700
     38 H28         -3.0490    -2.7900     1.2820 h1         1 RT7       0.073700
     39 H113        -0.2900    -0.0690    -1.3290 h1         1 RT7       0.100700
     40 H213        -0.2130     0.8590     0.1680 h1         1 RT7       0.100700
     41 HN15         1.9560     1.0540    -0.8290 hn         1 RT7       0.338500
     42 H18A         6.4610     1.8370    -0.0940 ha         1 RT7       0.170000
     43 H128         8.1400    -1.0250     2.0580 hn         1 RT7       0.420300
     44 H228         9.3640     0.0430     1.6810 hn         1 RT7       0.420300
     45 H20          6.0250    -2.4290    -0.3910 ha         1 RT7       0.162000
     46 H21          3.6100    -2.1750    -0.5410 ha         1 RT7       0.166000
@<TRIPOS>BOND
     1     1     2 1   
     2     2     3 ar  
     3     2     6 ar  
     4     3     4 ar  
     5     3    31 1   
     6     4     5 1   
     7     4    12 ar  
     8     6     7 ar  
     9     6    32 1   
    10     7     8 1   
    11     7    12 ar  
    12     8     9 1   
    13     8    33 1   
    14     8    34 1   
    15     9    10 1   
    16     9    35 1   
    17     9    36 1   
    18    10    11 1   
    19    10    37 1   
    20    10    38 1   
    21    11    12 1   
    22    11    13 1   
    23    13    14 2   
    24    13    15 1   
    25    15    16 1   
    26    16    17 1   
    27    16    39 1   
    28    16    40 1   
    29    17    18 2   
    30    17    19 1   
    31    19    20 1   
    32    19    41 1   
    33    20    21 ar  
    34    20    30 ar  
    35    21    22 1   
    36    21    23 ar  
    37    23    24 ar  
    38    23    42 1   
    39    24    25 1   
    40    24    29 ar  
    41    25    26 1   
    42    25    27 2   
    43    25    28 2   
    44    26    43 1   
    45    26    44 1   
    46    29    30 ar  
    47    29    45 1   
    48    30    46 1   
@<TRIPOS>SUBSTRUCTURE
     1 RT7         1 TEMP              0 ****  ****    0 ROOT
