@<TRIPOS>MOLECULE
RT7
   46    48     1     0     0
SMALL
No Charge or Current Charge


@<TRIPOS>ATOM
      1 Cl30        -9.1070     1.8990    -0.7380 cl         1 RT7      -0.189000
      2 C4          -7.6610     0.9990    -0.2980 ca         1 RT7       0.126000
      3 C3          -6.7240     1.5650     0.5740 ca         1 RT7      -0.093000
      4 C2          -5.5690     0.8510     0.9300 ca         1 RT7       0.145000
      5 Cl29        -4.4960     1.5810     2.1300 cl         1 RT7      -0.169000
      6 C5          -7.4560    -0.2890    -0.8090 ca         1 RT7      -0.099000
      7 C6          -6.3050    -1.0200    -0.4620 ca         1 RT7      -0.077300
      8 C10         -6.1510    -2.4500    -1.0100 c6         1 RT7      -0.033100
      9 C9          -4.7890    -3.1190    -0.6940 c6         1 RT7      -0.105400
     10 C8          -4.2340    -2.6320     0.6600 c6         1 RT7       0.091000
     11 N7          -4.0960    -1.1560     0.5930 n          1 RT7      -0.195400
     12 C1          -5.3560    -0.4650     0.4380 ca         1 RT7      -0.055000
     13 C11         -2.8410    -0.5340     0.3160 c          1 RT7       0.623700
     14 O22         -2.7430     0.5890    -0.1630 o          1 RT7      -0.557100
     15 S12         -1.3620    -1.5530     0.6490 ss         1 RT7      -0.259600
     16 C13         -0.0120    -0.3800     0.1200 c3         1 RT7      -0.052400
     17 C14          1.4090    -0.9420     0.2770 c          1 RT7       0.624100
     18 O23          1.6300    -2.0670     0.7130 o          1 RT7      -0.547100
     19 N15          2.3990    -0.0530    -0.1170 ns         1 RT7      -0.152000
     20 C16          3.8200    -0.1460    -0.1540 ca         1 RT7       0.038000
     21 C17          4.5500     0.9960    -0.5530 ca         1 RT7       0.043000
     22 Cl24         3.7160     2.4900    -0.9870 cl         1 RT7      -0.191000
     23 C18          5.9540     0.9670    -0.6120 ca         1 RT7       0.030000
     24 C19          6.6520    -0.2090    -0.2730 ca         1 RT7      -0.289500
     25 S25          8.4410    -0.2360    -0.3530 sy         1 RT7       1.134600
     26 N28          8.8490     0.3510     1.1170 n8         1 RT7      -1.006100
     27 O27          8.9240    -1.6140    -0.3270 o          1 RT7      -0.542500
     28 O26          8.9240     0.7600    -1.3090 o          1 RT7      -0.542500
     29 C20          5.9350    -1.3540     0.1230 ca         1 RT7       0.010000
     30 C21          4.5300    -1.3220     0.1810 ca         1 RT7      -0.141000
     31 H3          -6.8950     2.5570     0.9830 ha         1 RT7       0.148000
     32 H5          -8.1960    -0.7220    -1.4780 ha         1 RT7       0.133000
     33 H110        -6.9520    -3.0670    -0.5800 hc         1 RT7       0.058700
     34 H210        -6.3190    -2.4580    -2.0960 hc         1 RT7       0.058700
     35 H19         -4.8930    -4.2120    -0.6940 hc         1 RT7       0.059200
     36 H29         -4.0670    -2.8740    -1.4850 hc         1 RT7       0.059200
     37 H18         -4.9480    -2.8840     1.4580 h1         1 RT7       0.073700
     38 H28         -3.3020    -3.1560     0.8990 h1         1 RT7       0.073700
     39 H113        -0.1540    -0.1160    -0.9350 h1         1 RT7       0.100700
     40 H213        -0.0780     0.5390     0.7150 h1         1 RT7       0.100700
     41 HN15         2.0470     0.8380    -0.4420 hn         1 RT7       0.172000
     42 H18A         6.4920     1.8620    -0.9200 ha         1 RT7       0.152000
     43 H128         8.0360     0.1140     1.6800 hn         1 RT7       0.475500
     44 H228         9.5510    -0.3260     1.4070 hn         1 RT7       0.475500
     45 H20          6.4570    -2.2750     0.3850 ha         1 RT7       0.144000
     46 H21          4.0160    -2.2270     0.4860 ha         1 RT7       0.148000
@<TRIPOS>BOND
     1     1     2 1   
     2     2     3 ar  
     3     2     6 ar  
     4     3     4 ar  
     5     3    31 1   
     6     4     5 1   
     7     4    12 ar  
     8     6     7 ar  
     9     6    32 1   
    10     7     8 1   
    11     7    12 ar  
    12     8     9 1   
    13     8    33 1   
    14     8    34 1   
    15     9    10 1   
    16     9    35 1   
    17     9    36 1   
    18    10    11 1   
    19    10    37 1   
    20    10    38 1   
    21    11    12 1   
    22    11    13 1   
    23    13    14 2   
    24    13    15 1   
    25    15    16 1   
    26    16    17 1   
    27    16    39 1   
    28    16    40 1   
    29    17    18 2   
    30    17    19 1   
    31    19    20 1   
    32    19    41 1   
    33    20    21 ar  
    34    20    30 ar  
    35    21    22 1   
    36    21    23 ar  
    37    23    24 ar  
    38    23    42 1   
    39    24    25 1   
    40    24    29 ar  
    41    25    26 1   
    42    25    27 2   
    43    25    28 2   
    44    26    43 1   
    45    26    44 1   
    46    29    30 ar  
    47    29    45 1   
    48    30    46 1   
@<TRIPOS>SUBSTRUCTURE
     1 RT7         1 TEMP              0 ****  ****    0 ROOT
