@<TRIPOS>MOLECULE
RT8
   58    61     1     0     0
SMALL
abcg2


@<TRIPOS>ATOM
      1 O2           1.2930    -1.7030    -1.3200 o          1 RT8      -0.565100
      2 C6           1.5730    -0.8420    -0.5140 c          1 RT8       0.607100
      3 N2           2.7270    -0.8030     0.2050 ns         1 RT8      -0.138000
      4 C5           3.8070    -1.6740     0.1720 ca         1 RT8       0.024000
      5 C4           4.8940    -1.3830     1.0000 ca         1 RT8      -0.208500
      6 C3           5.9890    -2.2240     0.9950 ca         1 RT8       0.355900
      7 N1           6.0820    -3.3160     0.2420 nb         1 RT8      -0.684000
      8 C2           5.0440    -3.5850    -0.5390 ca         1 RT8       0.355900
      9 C1           3.8920    -2.8180    -0.6210 ca         1 RT8      -0.208500
     10 C7           0.6710     0.3700    -0.2830 c3         1 RT8       0.045700
     11 N3          -0.7040    -0.0350    -0.2890 ns         1 RT8      -0.493900
     12 C8          -1.1620    -0.9840     0.5470 c          1 RT8       0.604100
     13 O1          -0.4290    -1.5080     1.3760 o          1 RT8      -0.606100
     14 C9          -2.6070    -1.3830     0.3440 c6         1 RT8      -0.134700
     15 C15         -3.2630    -1.8570     1.6390 c6         1 RT8      -0.066400
     16 C14         -4.7000    -2.3010     1.3890 c6         1 RT8      -0.071900
     17 C12         -4.7890    -3.3960     0.3280 c6         1 RT8      -0.064700
     18 C13         -6.2310    -3.8160     0.0790 c3         1 RT8      -0.086100
     19 C11         -4.1160    -2.9270    -0.9610 c6         1 RT8      -0.071900
     20 C10         -2.6770    -2.4830    -0.7270 c6         1 RT8      -0.066400
     21 C16          0.9290     1.3820    -1.4150 c3         1 RT8      -0.011200
     22 C17          0.0270     2.5660    -1.3580 cc         1 RT8      -0.156400
     23 C20          0.0500     3.6280    -0.3960 ca         1 RT8      -0.092800
     24 C21          0.8610     3.9230     0.7070 ca         1 RT8      -0.064000
     25 C22          0.6110     5.0710     1.4330 ca         1 RT8      -0.134000
     26 C23         -0.4380     5.9360     1.0810 ca         1 RT8      -0.089000
     27 C24         -1.2540     5.6720    -0.0010 ca         1 RT8      -0.125000
     28 C19         -0.9980     4.5130    -0.7320 ca         1 RT8      -0.046200
     29 N4          -1.6210     4.0070    -1.8360 na         1 RT8      -0.220700
     30 C18         -1.0070     2.8460    -2.2090 cd         1 RT8      -0.156100
     31 H2           2.8130    -0.0500     0.8710 hn         1 RT8       0.155000
     32 H7           0.9170     0.8350     0.6780 h1         1 RT8       0.065700
     33 H4           4.8870    -0.5090     1.6390 ha         1 RT8       0.136000
     34 H1           3.1010    -3.1210    -1.2850 ha         1 RT8       0.136000
     35 H3           6.8350    -1.9990     1.6360 h4         1 RT8       0.017100
     36 HA           5.1190    -4.4770    -1.1520 h4         1 RT8       0.017100
     37 HB          -1.3350     0.4070    -0.9390 hn         1 RT8       0.327500
     38 H161         1.9740     1.6960    -1.3550 hc         1 RT8       0.063200
     39 H162         0.8110     0.8740    -2.3750 hc         1 RT8       0.063200
     40 H9          -3.1650    -0.5150    -0.0290 hc         1 RT8       0.049700
     41 H151        -2.6890    -2.6910     2.0520 hc         1 RT8       0.054450
     42 H152        -3.2410    -1.0590     2.3860 hc         1 RT8       0.054450
     43 H101        -2.2350    -2.1300    -1.6610 hc         1 RT8       0.054450
     44 H102        -2.0790    -3.3400    -0.3980 hc         1 RT8       0.054450
     45 H141        -5.1450    -2.6500     2.3250 hc         1 RT8       0.038450
     46 H142        -5.2970    -1.4400     1.0640 hc         1 RT8       0.038450
     47 H12         -4.2320    -4.2680     0.6970 hc         1 RT8       0.050700
     48 H131        -6.8200    -2.9780    -0.3010 hc         1 RT8       0.032033
     49 H132        -6.2910    -4.6230    -0.6530 hc         1 RT8       0.032033
     50 H133        -6.7090    -4.1660     0.9960 hc         1 RT8       0.032033
     51 H111        -4.1370    -3.7270    -1.7060 hc         1 RT8       0.038450
     52 H112        -4.6920    -2.0940    -1.3810 hc         1 RT8       0.038450
     53 H18         -1.3500     2.2970    -3.0720 h4         1 RT8       0.214000
     54 H21          1.6770     3.2680     0.9900 ha         1 RT8       0.109000
     55 H22          1.2320     5.3110     2.2870 ha         1 RT8       0.113000
     56 H23         -0.6080     6.8290     1.6690 ha         1 RT8       0.113000
     57 H24         -2.0590     6.3430    -0.2730 ha         1 RT8       0.115000
     58 HC          -2.3990     4.4280    -2.3150 hn         1 RT8       0.353000
@<TRIPOS>BOND
     1     1     2 2   
     2     2     3 1   
     3     2    10 1   
     4     3     4 1   
     5     3    31 1   
     6     4     5 ar  
     7     4     9 ar  
     8     5     6 ar  
     9     5    33 1   
    10     6     7 ar  
    11     6    35 1   
    12     7     8 ar  
    13     8     9 ar  
    14     8    36 1   
    15     9    34 1   
    16    10    11 1   
    17    10    21 1   
    18    10    32 1   
    19    11    12 1   
    20    11    37 1   
    21    12    13 2   
    22    12    14 1   
    23    14    15 1   
    24    14    20 1   
    25    14    40 1   
    26    15    16 1   
    27    15    41 1   
    28    15    42 1   
    29    16    17 1   
    30    16    45 1   
    31    16    46 1   
    32    17    18 1   
    33    17    19 1   
    34    17    47 1   
    35    18    48 1   
    36    18    49 1   
    37    18    50 1   
    38    19    20 1   
    39    19    51 1   
    40    19    52 1   
    41    20    43 1   
    42    20    44 1   
    43    21    22 1   
    44    21    38 1   
    45    21    39 1   
    46    22    23 1   
    47    22    30 2   
    48    23    24 ar  
    49    23    28 ar  
    50    24    25 ar  
    51    24    54 1   
    52    25    26 ar  
    53    25    55 1   
    54    26    27 ar  
    55    26    56 1   
    56    27    28 ar  
    57    27    57 1   
    58    28    29 1   
    59    29    30 1   
    60    29    58 1   
    61    30    53 1   
@<TRIPOS>SUBSTRUCTURE
     1 RT8         1 TEMP              0 ****  ****    0 ROOT
