@<TRIPOS>MOLECULE
RT8
   58    61     1     0     0
SMALL
No Charge or Current Charge


@<TRIPOS>ATOM
      1 O2           1.9580    -2.2230    -1.3810 o          1 RT8      -0.565100
      2 C6           2.1640    -1.1890    -0.7510 c          1 RT8       0.607100
      3 N2           3.4240    -0.7660    -0.3450 ns         1 RT8      -0.138000
      4 C5           4.7200    -1.3240    -0.5190 ca         1 RT8       0.024000
      5 C4           5.8190    -0.6490     0.0370 ca         1 RT8      -0.208500
      6 C3           7.1110    -1.1750    -0.1200 ca         1 RT8       0.355900
      7 N1           7.3620    -2.3200    -0.7920 nb         1 RT8      -0.684000
      8 C2           6.3080    -2.9730    -1.3310 ca         1 RT8       0.355900
      9 C1           4.9850    -2.5170    -1.2210 ca         1 RT8      -0.208500
     10 C7           1.0140    -0.2300    -0.3290 c3         1 RT8       0.045700
     11 N3          -0.3080    -0.8890    -0.4700 ns         1 RT8      -0.493900
     12 C8          -1.3170    -0.8420     0.4670 c          1 RT8       0.604100
     13 O1          -1.1530    -0.3690     1.5840 o          1 RT8      -0.606100
     14 C9          -2.6690    -1.4400     0.0260 c6         1 RT8      -0.134700
     15 C15         -3.7940    -0.3760    -0.0790 c6         1 RT8      -0.066400
     16 C14         -5.1110    -1.0050    -0.5970 c6         1 RT8      -0.071900
     17 C12         -5.5400    -2.2270     0.2640 c6         1 RT8      -0.064700
     18 C13         -6.8720    -2.8370    -0.2470 c3         1 RT8      -0.086100
     19 C11         -4.4090    -3.2930     0.3060 c6         1 RT8      -0.071900
     20 C10         -3.0810    -2.6960     0.8370 c6         1 RT8      -0.066400
     21 C16          1.0490     1.0870    -1.1510 c3         1 RT8      -0.011200
     22 C17         -0.0750     2.0370    -0.8220 cc         1 RT8      -0.156400
     23 C20         -0.2310     2.8040     0.3820 ca         1 RT8      -0.092800
     24 C21          0.5930     2.8960     1.5140 ca         1 RT8      -0.064000
     25 C22          0.1790     3.7420     2.5650 ca         1 RT8      -0.134000
     26 C23         -1.0320     4.4680     2.4630 ca         1 RT8      -0.089000
     27 C24         -1.8360     4.3530     1.3090 ca         1 RT8      -0.125000
     28 C19         -1.4000     3.5050     0.2810 ca         1 RT8      -0.046200
     29 N4          -2.0220     3.2490    -0.9260 na         1 RT8      -0.220700
     30 C18         -1.1860     2.3320    -1.6080 cd         1 RT8      -0.156100
     31 H2           3.4230     0.1030     0.1730 hn         1 RT8       0.155000
     32 H7           1.1780     0.0150     0.7280 h1         1 RT8       0.065700
     33 H4           5.6840     0.2770     0.5890 ha         1 RT8       0.136000
     34 H1           4.2000    -3.1030    -1.6840 ha         1 RT8       0.136000
     35 H3           7.9740    -0.6630     0.3060 h4         1 RT8       0.017100
     36 HA           6.5330    -3.8940    -1.8690 h4         1 RT8       0.017100
     37 HB          -0.5270    -1.3420    -1.3500 hn         1 RT8       0.327500
     38 H161         2.0070     1.5950    -0.9870 hc         1 RT8       0.063200
     39 H162         1.0140     0.8400    -2.2200 hc         1 RT8       0.063200
     40 H9          -2.5060    -1.7930    -1.0020 hc         1 RT8       0.049700
     41 H151        -3.9650     0.0790     0.9060 hc         1 RT8       0.054450
     42 H152        -3.4820     0.4380    -0.7480 hc         1 RT8       0.054450
     43 H101        -2.2870    -3.4550     0.7890 hc         1 RT8       0.054450
     44 H102        -3.1960    -2.4310     1.8970 hc         1 RT8       0.054450
     45 H141        -5.9050    -0.2450    -0.5920 hc         1 RT8       0.038450
     46 H142        -4.9840    -1.3140    -1.6440 hc         1 RT8       0.038450
     47 H12         -5.7330    -1.8810     1.2900 hc         1 RT8       0.050700
     48 H131        -6.7730    -3.2110    -1.2730 hc         1 RT8       0.032033
     49 H132        -7.1920    -3.6740     0.3850 hc         1 RT8       0.032033
     50 H133        -7.6770    -2.0920    -0.2390 hc         1 RT8       0.032033
     51 H111        -4.7110    -4.1350     0.9430 hc         1 RT8       0.038450
     52 H112        -4.2490    -3.7060    -0.7000 hc         1 RT8       0.038450
     53 H18         -1.4440     1.9510    -2.5930 h4         1 RT8       0.214000
     54 H21          1.5210     2.3350     1.5820 ha         1 RT8       0.109000
     55 H22          0.7940     3.8360     3.4570 ha         1 RT8       0.113000
     56 H23         -1.3440     5.1180     3.2780 ha         1 RT8       0.113000
     57 H24         -2.7670     4.9080     1.2210 ha         1 RT8       0.115000
     58 HC          -2.8990     3.6420    -1.2560 hn         1 RT8       0.353000
@<TRIPOS>BOND
     1     1     2 2   
     2     2     3 1   
     3     2    10 1   
     4     3     4 1   
     5     3    31 1   
     6     4     5 ar  
     7     4     9 ar  
     8     5     6 ar  
     9     5    33 1   
    10     6     7 ar  
    11     6    35 1   
    12     7     8 ar  
    13     8     9 ar  
    14     8    36 1   
    15     9    34 1   
    16    10    11 1   
    17    10    21 1   
    18    10    32 1   
    19    11    12 1   
    20    11    37 1   
    21    12    13 2   
    22    12    14 1   
    23    14    15 1   
    24    14    20 1   
    25    14    40 1   
    26    15    16 1   
    27    15    41 1   
    28    15    42 1   
    29    16    17 1   
    30    16    45 1   
    31    16    46 1   
    32    17    18 1   
    33    17    19 1   
    34    17    47 1   
    35    18    48 1   
    36    18    49 1   
    37    18    50 1   
    38    19    20 1   
    39    19    51 1   
    40    19    52 1   
    41    20    43 1   
    42    20    44 1   
    43    21    22 1   
    44    21    38 1   
    45    21    39 1   
    46    22    23 1   
    47    22    30 2   
    48    23    24 ar  
    49    23    28 ar  
    50    24    25 ar  
    51    24    54 1   
    52    25    26 ar  
    53    25    55 1   
    54    26    27 ar  
    55    26    56 1   
    56    27    28 ar  
    57    27    57 1   
    58    28    29 1   
    59    29    30 1   
    60    29    58 1   
    61    30    53 1   
@<TRIPOS>SUBSTRUCTURE
     1 RT8         1 TEMP              0 ****  ****    0 ROOT
