@<TRIPOS>MOLECULE
RTD
   18    18     1     0     0
SMALL
bcc


@<TRIPOS>ATOM
      1 O1          -1.5640     1.3900     0.9000 o          1 RTD      -0.811300
      2 C           -1.7180     0.8960    -0.2290 c          1 RTD       0.942600
      3 O2          -2.4590     1.2930    -1.1440 o          1 RTD      -0.811300
      4 CA          -0.8900    -0.3920    -0.5220 c3         1 RTD      -0.035300
      5 S1          -1.6280    -1.7880     0.4010 sh         1 RTD      -0.497900
      6 CB           0.5740    -0.1930    -0.2540 ca         1 RTD      -0.011300
      7 CG1          1.4280     0.0690    -1.3230 ca         1 RTD      -0.115500
      8 CD1          2.7800     0.3160    -1.1180 ca         1 RTD      -0.142500
      9 CE           3.3010     0.3040     0.1680 ca         1 RTD      -0.160000
     10 CD2          2.4580     0.0400     1.2420 ca         1 RTD      -0.142500
     11 CG2          1.1090    -0.2050     1.0330 ca         1 RTD      -0.115500
     12 HA          -1.0230    -0.6700    -1.5690 h1         1 RTD       0.074700
     13 H2          -1.8140    -1.1440     1.5590 hs         1 RTD       0.241800
     14 HG1          1.0320     0.0760    -2.3330 ha         1 RTD       0.131500
     15 HD1          3.4250     0.5120    -1.9650 ha         1 RTD       0.108000
     16 HE           4.3540     0.4910     0.3340 ha         1 RTD       0.105000
     17 HD2          2.8550     0.0240     2.2490 ha         1 RTD       0.108000
     18 HG2          0.4750    -0.4220     1.8830 ha         1 RTD       0.131500
@<TRIPOS>BOND
     1     1     2 1   
     2     2     3 1   
     3     2     4 1   
     4     4     5 1   
     5     4     6 1   
     6     4    12 1   
     7     5    13 1   
     8     6     7 ar  
     9     6    11 ar  
    10     7     8 ar  
    11     7    14 1   
    12     8     9 ar  
    13     8    15 1   
    14     9    10 ar  
    15     9    16 1   
    16    10    11 ar  
    17    10    17 1   
    18    11    18 1   
@<TRIPOS>SUBSTRUCTURE
     1 RTD         1 TEMP              0 ****  ****    0 ROOT
