@<TRIPOS>MOLECULE
RTD
   18    18     1     0     0
SMALL
No Charge or Current Charge


@<TRIPOS>ATOM
      1 O1          -2.0580     1.0530     1.0810 o          1 RTD      -0.706000
      2 C           -1.7860     0.9080    -0.1050 c          1 RTD       0.732000
      3 O2          -2.1520     1.6880    -0.9750 o          1 RTD      -0.706000
      4 CA          -0.9430    -0.3320    -0.5430 c3         1 RTD       0.012600
      5 S1          -1.4990    -1.9420     0.2550 sh         1 RTD      -0.545800
      6 CB           0.5500    -0.1240    -0.2870 ca         1 RTD      -0.011300
      7 CG1          1.4450    -0.0390    -1.3740 ca         1 RTD      -0.097500
      8 CD1          2.8200     0.1550    -1.1520 ca         1 RTD      -0.124500
      9 CE           3.3120     0.2650     0.1580 ca         1 RTD      -0.142000
     10 CD2          2.4290     0.1810     1.2470 ca         1 RTD      -0.124500
     11 CG2          1.0550    -0.0130     1.0260 ca         1 RTD      -0.097500
     12 HA          -1.1000    -0.4450    -1.6220 h1         1 RTD       0.074700
     13 H2          -1.5200    -1.4580     1.5240 hs         1 RTD       0.241800
     14 HG1          1.0750    -0.1230    -2.3930 ha         1 RTD       0.113500
     15 HD1          3.5020     0.2190    -1.9960 ha         1 RTD       0.090000
     16 HE           4.3760     0.4150     0.3300 ha         1 RTD       0.087000
     17 HD2          2.8090     0.2660     2.2630 ha         1 RTD       0.090000
     18 HG2          0.3810    -0.0760     1.8770 ha         1 RTD       0.113500
@<TRIPOS>BOND
     1     1     2 1   
     2     2     3 1   
     3     2     4 1   
     4     4     5 1   
     5     4     6 1   
     6     4    12 1   
     7     5    13 1   
     8     6     7 ar  
     9     6    11 ar  
    10     7     8 ar  
    11     7    14 1   
    12     8     9 ar  
    13     8    15 1   
    14     9    10 ar  
    15     9    16 1   
    16    10    11 ar  
    17    10    17 1   
    18    11    18 1   
@<TRIPOS>SUBSTRUCTURE
     1 RTD         1 TEMP              0 ****  ****    0 ROOT
