@<TRIPOS>MOLECULE
RTE
   45    48     1     0     0
SMALL
bcc


@<TRIPOS>ATOM
      1 C1           6.3710    -1.6850    -0.0750 ca         1 RTE      -0.066600
      2 C2           5.0840    -1.5910    -0.5710 ca         1 RTE       0.183900
      3 C3           4.3000    -0.4710    -0.3700 ca         1 RTE      -0.240000
      4 C4           4.8320     0.5900     0.3530 ca         1 RTE       0.175100
      5 C5           6.1270     0.5150     0.8620 ca         1 RTE      -0.179000
      6 C6           6.8870    -0.6190     0.6470 ca         1 RTE      -0.067000
      7 O7           4.1480     1.7290     0.6140 os         1 RTE      -0.249200
      8 C8           2.8930     1.9000     0.0740 ca         1 RTE       0.084100
      9 F9           4.5780    -2.6120    -1.2630 f          1 RTE      -0.121900
     10 C10          1.7940     1.6100     0.8580 ca         1 RTE      -0.124000
     11 C11          0.5550     1.8530     0.2750 ca         1 RTE      -0.081200
     12 C12          0.4120     2.3550    -1.0280 ca         1 RTE       0.074400
     13 C13          1.5440     2.6320    -1.7940 ca         1 RTE      -0.057000
     14 C14          2.7840     2.3980    -1.2320 ca         1 RTE      -0.168000
     15 N15         -0.7190     1.6940     0.7440 na         1 RTE      -0.125300
     16 C16         -1.5510     2.0980    -0.2570 cc         1 RTE       0.440800
     17 N17         -0.9190     2.4940    -1.3270 nd         1 RTE      -0.570100
     18 C18         -1.0650     1.2490     2.0750 c3         1 RTE       0.030600
     19 C19         -3.0340     2.0910    -0.1310 c3         1 RTE       0.122100
     20 O20         -3.4550     0.7430    -0.0690 os         1 RTE      -0.329900
     21 C21         -4.7800     0.4930     0.0800 ca         1 RTE       0.084100
     22 C22         -5.1380    -0.8500     0.1900 ca         1 RTE      -0.127000
     23 C23         -6.4650    -1.2240     0.3370 ca         1 RTE      -0.105600
     24 C24         -7.4480    -0.2330     0.3760 ca         1 RTE      -0.126000
     25 C25         -7.0910     1.0990     0.2700 ca         1 RTE      -0.134000
     26 C26         -5.7610     1.4790     0.1200 ca         1 RTE      -0.238000
     27 C27         -6.8390    -2.6990     0.4550 c          1 RTE       0.923200
     28 O28         -5.9010    -3.5180     0.4280 o          1 RTE      -0.820300
     29 O29         -8.0520    -2.9560     0.5680 o          1 RTE      -0.820300
     30 CL1          7.2980    -3.1110    -0.3570 cl         1 RTE      -0.088400
     31 H1           3.2970    -0.4510    -0.7760 ha         1 RTE       0.175000
     32 H2           6.5350     1.3430     1.4260 ha         1 RTE       0.151000
     33 H3           7.8910    -0.6760     1.0440 ha         1 RTE       0.146000
     34 H4           1.9060     1.2290     1.8650 ha         1 RTE       0.151000
     35 H5           1.4550     3.0220    -2.7990 ha         1 RTE       0.149000
     36 H6           3.6860     2.6060    -1.7940 ha         1 RTE       0.141000
     37 H7          -0.8390     2.0200     2.8100 h1         1 RTE       0.060033
     38 H8          -2.1220     1.0110     2.1290 h1         1 RTE       0.060033
     39 H9          -0.5050     0.3490     2.3210 h1         1 RTE       0.060033
     40 H10         -3.3500     2.6430     0.7630 h1         1 RTE       0.053700
     41 H11         -3.4470     2.6040    -1.0040 h1         1 RTE       0.053700
     42 H12         -4.3640    -1.6070     0.1610 ha         1 RTE       0.160000
     43 H13         -8.4860    -0.5110     0.4910 ha         1 RTE       0.149000
     44 H14         -7.8530     1.8680     0.3000 ha         1 RTE       0.104000
     45 H15         -5.5210     2.5300     0.0350 ha         1 RTE       0.105000
@<TRIPOS>BOND
     1     1     2 ar  
     2     1     6 ar  
     3     1    30 1   
     4     2     3 ar  
     5     2     9 1   
     6     3     4 ar  
     7     3    31 1   
     8     4     5 ar  
     9     4     7 1   
    10     5     6 ar  
    11     5    32 1   
    12     6    33 1   
    13     7     8 1   
    14     8    10 ar  
    15     8    14 ar  
    16    10    11 ar  
    17    10    34 1   
    18    11    12 ar  
    19    11    15 1   
    20    12    13 ar  
    21    12    17 1   
    22    13    14 ar  
    23    13    35 1   
    24    14    36 1   
    25    15    16 1   
    26    15    18 1   
    27    16    17 2   
    28    16    19 1   
    29    18    37 1   
    30    18    38 1   
    31    18    39 1   
    32    19    20 1   
    33    19    40 1   
    34    19    41 1   
    35    20    21 1   
    36    21    22 ar  
    37    21    26 ar  
    38    22    23 ar  
    39    22    42 1   
    40    23    24 ar  
    41    23    27 1   
    42    24    25 ar  
    43    24    43 1   
    44    25    26 ar  
    45    25    44 1   
    46    26    45 1   
    47    27    28 1   
    48    27    29 1   
@<TRIPOS>SUBSTRUCTURE
     1 RTE         1 TEMP              0 ****  ****    0 ROOT
