@<TRIPOS>MOLECULE
RTE
   45    48     1     0     0
SMALL
No Charge or Current Charge


@<TRIPOS>ATOM
      1 C1           7.2690    -0.9930    -0.5730 ca         1 RTE       0.025000
      2 C2           5.9520    -1.3850    -0.8870 ca         1 RTE       0.219000
      3 C3           4.8570    -0.7050    -0.3320 ca         1 RTE      -0.222000
      4 C4           5.0770     0.3810     0.5350 ca         1 RTE       0.175100
      5 C5           6.3880     0.7660     0.8600 ca         1 RTE      -0.161000
      6 C6           7.4850     0.0840     0.3040 ca         1 RTE      -0.049000
      7 O7           4.0230     1.0590     1.1050 os         1 RTE      -0.249200
      8 C8           2.8530     1.3240     0.4310 ca         1 RTE       0.084100
      9 F9           5.7290    -2.4250    -1.7230 f          1 RTE      -0.157000
     10 C10          1.6320     1.2450     1.1320 ca         1 RTE      -0.106000
     11 C11          0.4560     1.5330     0.4230 ca         1 RTE      -0.081200
     12 C12          0.4560     1.8880    -0.8970 ca         1 RTE       0.074400
     13 C13          1.6590     1.9860    -1.6110 ca         1 RTE      -0.039000
     14 C14          2.8680     1.7050    -0.9350 ca         1 RTE      -0.150000
     15 N15         -0.8470     1.5340     0.8220 na         1 RTE      -0.154600
     16 C16         -1.6220     1.8920    -0.2890 cc         1 RTE       0.440800
     17 N17         -0.8350     2.1220    -1.3670 nd         1 RTE      -0.570100
     18 C18         -1.2710     1.1950     2.1920 c3         1 RTE       0.059900
     19 C19         -3.1300     2.0210    -0.2780 c3         1 RTE       0.145300
     20 O20         -3.7280     0.7290    -0.0290 os         1 RTE      -0.353100
     21 C21         -5.0930     0.5560     0.0630 ca         1 RTE       0.084100
     22 C22         -5.5740    -0.7380     0.3220 ca         1 RTE      -0.109000
     23 C23         -6.9620    -0.9950     0.4320 ca         1 RTE      -0.105600
     24 C24         -7.8590     0.0880     0.2730 ca         1 RTE      -0.108000
     25 C25         -7.3810     1.3840     0.0130 ca         1 RTE      -0.116000
     26 C26         -6.0020     1.6220    -0.0930 ca         1 RTE      -0.220000
     27 C27         -7.4760    -2.4000     0.7130 c          1 RTE       0.712600
     28 O28         -6.6640    -3.3060     0.8430 o          1 RTE      -0.715000
     29 O29         -8.6830    -2.5770     0.8010 o          1 RTE      -0.715000
     30 Cl1          8.6530    -1.8410    -1.2630 cl         1 RTE      -0.180000
     31 H1           3.8480    -1.0250    -0.5740 ha         1 RTE       0.157000
     32 H2           6.5520     1.5980     1.5410 ha         1 RTE       0.133000
     33 H3           8.5000     0.3870     0.5530 ha         1 RTE       0.128000
     34 H4           1.6120     0.9650     2.1820 ha         1 RTE       0.133000
     35 H5           1.6590     2.2760    -2.6590 ha         1 RTE       0.131000
     36 H6           3.8100     1.7860    -1.4710 ha         1 RTE       0.123000
     37 H7          -0.7390     1.8300     2.9110 h1         1 RTE       0.060033
     38 H8          -2.3500     1.3520     2.3080 h1         1 RTE       0.060033
     39 H9          -1.0390     0.1420     2.3970 h1         1 RTE       0.060033
     40 H10         -3.4130     2.7370     0.5030 h1         1 RTE       0.053700
     41 H11         -3.4610     2.4190    -1.2460 h1         1 RTE       0.053700
     42 H12         -4.8580    -1.5480     0.4390 ha         1 RTE       0.142000
     43 H13         -8.9320    -0.0720     0.3500 ha         1 RTE       0.131000
     44 H14         -8.0840     2.2050    -0.1070 ha         1 RTE       0.086000
     45 H15         -5.6630     2.6340    -0.2940 ha         1 RTE       0.087000
@<TRIPOS>BOND
     1     1     2 ar  
     2     1     6 ar  
     3     1    30 1   
     4     2     3 ar  
     5     2     9 1   
     6     3     4 ar  
     7     3    31 1   
     8     4     5 ar  
     9     4     7 1   
    10     5     6 ar  
    11     5    32 1   
    12     6    33 1   
    13     7     8 1   
    14     8    10 ar  
    15     8    14 ar  
    16    10    11 ar  
    17    10    34 1   
    18    11    12 ar  
    19    11    15 1   
    20    12    13 ar  
    21    12    17 1   
    22    13    14 ar  
    23    13    35 1   
    24    14    36 1   
    25    15    16 1   
    26    15    18 1   
    27    16    17 2   
    28    16    19 1   
    29    18    37 1   
    30    18    38 1   
    31    18    39 1   
    32    19    20 1   
    33    19    40 1   
    34    19    41 1   
    35    20    21 1   
    36    21    22 ar  
    37    21    26 ar  
    38    22    23 ar  
    39    22    42 1   
    40    23    24 ar  
    41    23    27 1   
    42    24    25 ar  
    43    24    43 1   
    44    25    26 ar  
    45    25    44 1   
    46    26    45 1   
    47    27    28 1   
    48    27    29 1   
@<TRIPOS>SUBSTRUCTURE
     1 RTE         1 TEMP              0 ****  ****    0 ROOT
