@<TRIPOS>MOLECULE
RTF
   50    53     1     0     0
SMALL
bcc


@<TRIPOS>ATOM
      1 C1          -3.3730    -1.1480    -0.0220 ca         1 RTF       0.115100
      2 C2          -2.2650    -0.9580     0.7780 ca         1 RTF      -0.122000
      3 C3          -2.0820    -2.1460    -1.8060 ca         1 RTF      -0.061000
      4 C4          -3.2950    -1.7310    -1.2940 ca         1 RTF      -0.156000
      5 C5          -0.9410    -1.9640    -1.0260 ca         1 RTF       0.072400
      6 C6          -1.0510    -1.3780     0.2450 ca         1 RTF      -0.076200
      7 N7           0.2250    -1.3390     0.7370 na         1 RTF      -0.127300
      8 C8           1.0250    -1.8890    -0.2200 cc         1 RTF       0.433800
      9 N9           0.3720    -2.2680    -1.2830 nd         1 RTF      -0.573100
     10 C10          0.6010    -0.8880     2.0590 c3         1 RTF       0.030600
     11 C11          2.4980    -2.0300    -0.0600 c3         1 RTF       0.124100
     12 O12          3.0530    -0.7290    -0.0400 os         1 RTF      -0.329900
     13 O13         -4.6110    -0.8050     0.4740 os         1 RTF      -0.377400
     14 C14          4.3860    -0.6020     0.1720 ca         1 RTF       0.086100
     15 C15          4.8580     0.7020     0.3120 ca         1 RTF      -0.128000
     16 C16          6.2060     0.9530     0.5200 ca         1 RTF      -0.105600
     17 C17          7.0920    -0.1230     0.5930 ca         1 RTF      -0.127000
     18 C18          6.6220    -1.4170     0.4590 ca         1 RTF      -0.135000
     19 C19          5.2700    -1.6730     0.2460 ca         1 RTF      -0.238000
     20 C20          6.7040     2.3880     0.6730 c          1 RTF       0.923200
     21 O21          7.9290     2.5360     0.8380 o          1 RTF      -0.821800
     22 O22          5.8430     3.2870     0.6190 o          1 RTF      -0.821800
     23 C23         -5.1300     0.4060     0.1560 ca         1 RTF       0.643600
     24 C24         -6.4110     0.6810     0.6600 ca         1 RTF      -0.206600
     25 C25         -6.9250     1.9220     0.3370 ca         1 RTF      -0.078000
     26 C26         -6.2050     2.8320    -0.4450 ca         1 RTF      -0.230600
     27 C27         -4.9580     2.4180    -0.8730 ca         1 RTF       0.440200
     28 N28         -4.4300     1.2290    -0.5770 nb         1 RTF      -0.718000
     29 C29         -7.1580    -0.3140     1.4920 c3         1 RTF      -0.027800
     30 C30         -6.7540     4.1820    -0.7910 c3         1 RTF      -0.032800
     31 H1          -2.3500    -0.5080     1.7590 ha         1 RTF       0.146000
     32 H2          -2.0190    -2.6000    -2.7870 ha         1 RTF       0.144000
     33 H3          -4.2020    -1.8570    -1.8720 ha         1 RTF       0.136000
     34 H4           0.4780    -1.6830     2.7930 h1         1 RTF       0.058367
     35 H5           1.6330    -0.5540     2.0640 h1         1 RTF       0.058367
     36 H6          -0.0220    -0.0440     2.3450 h1         1 RTF       0.058367
     37 H7           2.7410    -2.5730     0.8610 h1         1 RTF       0.052700
     38 H8           2.8730    -2.6160    -0.9040 h1         1 RTF       0.052700
     39 H9           4.1590     1.5260     0.2590 ha         1 RTF       0.160000
     40 H10          8.1460     0.0580     0.7530 ha         1 RTF       0.148000
     41 H11          7.3090    -2.2520     0.5160 ha         1 RTF       0.103000
     42 H12          4.9370    -2.6970     0.1390 ha         1 RTF       0.106000
     43 H14         -7.9110     2.1900     0.7010 ha         1 RTF       0.130000
     44 H15         -4.3470     3.0700    -1.4880 h4         1 RTF       0.022100
     45 H16         -6.6150    -0.5660     2.4040 hc         1 RTF       0.043367
     46 H17         -8.1300     0.0830     1.7820 hc         1 RTF       0.043367
     47 H18         -7.3270    -1.2460     0.9510 hc         1 RTF       0.043367
     48 H19         -6.8700     4.8030     0.0990 hc         1 RTF       0.040033
     49 H20         -6.0970     4.7100    -1.4800 hc         1 RTF       0.040033
     50 H21         -7.7370     4.1050    -1.2590 hc         1 RTF       0.040033
@<TRIPOS>BOND
     1     1     2 ar  
     2     1     4 ar  
     3     1    13 1   
     4     2     6 ar  
     5     2    31 1   
     6     3     4 ar  
     7     3     5 ar  
     8     3    32 1   
     9     4    33 1   
    10     5     6 ar  
    11     5     9 1   
    12     6     7 1   
    13     7     8 1   
    14     7    10 1   
    15     8     9 2   
    16     8    11 1   
    17    10    34 1   
    18    10    35 1   
    19    10    36 1   
    20    11    12 1   
    21    11    37 1   
    22    11    38 1   
    23    12    14 1   
    24    13    23 1   
    25    14    15 ar  
    26    14    19 ar  
    27    15    16 ar  
    28    15    39 1   
    29    16    17 ar  
    30    16    20 1   
    31    17    18 ar  
    32    17    40 1   
    33    18    19 ar  
    34    18    41 1   
    35    19    42 1   
    36    20    21 1   
    37    20    22 1   
    38    23    24 ar  
    39    23    28 ar  
    40    24    25 ar  
    41    24    29 1   
    42    25    26 ar  
    43    25    43 1   
    44    26    27 ar  
    45    26    30 1   
    46    27    28 ar  
    47    27    44 1   
    48    29    45 1   
    49    29    46 1   
    50    29    47 1   
    51    30    48 1   
    52    30    49 1   
    53    30    50 1   
@<TRIPOS>SUBSTRUCTURE
     1 RTF         1 TEMP              0 ****  ****    0 ROOT
