@<TRIPOS>MOLECULE
RTF
   50    53     1     0     0
SMALL
No Charge or Current Charge


@<TRIPOS>ATOM
      1 C1          -3.1750    -0.2170     0.3990 ca         1 RTF       0.115100
      2 C2          -1.9730    -0.3510     1.1240 ca         1 RTF      -0.104000
      3 C3          -2.0660    -1.0590    -1.6250 ca         1 RTF      -0.043000
      4 C4          -3.2240    -0.5820    -0.9720 ca         1 RTF      -0.138000
      5 C5          -0.8790    -1.1700    -0.8860 ca         1 RTF       0.072400
      6 C6          -0.8480    -0.8290     0.4370 ca         1 RTF      -0.076200
      7 N7           0.4270    -1.0540     0.8630 na         1 RTF      -0.156600
      8 C8           1.1550    -1.5310    -0.2370 cc         1 RTF       0.433800
      9 N9           0.3640    -1.6160    -1.3320 nd         1 RTF      -0.573100
     10 C10          0.8730    -0.8010     2.2440 c3         1 RTF       0.059900
     11 C11          2.6180    -1.9140    -0.1960 c3         1 RTF       0.147300
     12 O12          3.4210    -0.7440     0.0760 os         1 RTF      -0.353100
     13 O13         -4.2970     0.2280     1.0600 os         1 RTF      -0.377400
     14 C14          4.7940    -0.8050     0.1960 ca         1 RTF       0.086100
     15 C15          5.4820     0.3880     0.4750 ca         1 RTF      -0.110000
     16 C16          6.8910     0.4040     0.6150 ca         1 RTF      -0.105600
     17 C17          7.5940    -0.8150     0.4660 ca         1 RTF      -0.109000
     18 C18          6.9090    -2.0100     0.1870 ca         1 RTF      -0.117000
     19 C19          5.5120    -2.0100     0.0520 ca         1 RTF      -0.220000
     20 C20          7.6300     1.7010     0.9170 c          1 RTF       0.712600
     21 O21          8.8480     1.6700     1.0290 o          1 RTF      -0.716500
     22 O22          6.9800     2.7310     1.0370 o          1 RTF      -0.716500
     23 C23         -5.2670     0.9900     0.4510 ca         1 RTF       0.578300
     24 C24         -6.6230     0.6330     0.6330 ca         1 RTF      -0.141300
     25 C25         -7.6150     1.4250     0.0280 ca         1 RTF      -0.060000
     26 C26         -7.2180     2.5410    -0.7260 ca         1 RTF      -0.165300
     27 C27         -5.8430     2.8240    -0.8400 ca         1 RTF       0.374900
     28 N28         -4.8810     2.0710    -0.2640 nb         1 RTF      -0.718000
     29 C29         -7.0110    -0.5870     1.4610 c3         1 RTF      -0.027800
     30 C30         -8.2550     3.4290    -1.3970 c3         1 RTF      -0.032800
     31 H1          -1.9290    -0.0880     2.1770 ha         1 RTF       0.128000
     32 H2          -2.0920    -1.3380    -2.6760 ha         1 RTF       0.126000
     33 H3          -4.1530    -0.5010    -1.5290 ha         1 RTF       0.118000
     34 H4           0.2250    -1.3420     2.9450 h1         1 RTF       0.058367
     35 H5           1.9070    -1.1410     2.3810 h1         1 RTF       0.058367
     36 H6           0.8180     0.2740     2.4560 h1         1 RTF       0.058367
     37 H7           2.7590    -2.6710     0.5860 h1         1 RTF       0.052700
     38 H8           2.8980    -2.3590    -1.1590 h1         1 RTF       0.052700
     39 H9           4.9110     1.3060     0.5830 ha         1 RTF       0.142000
     40 H10          8.6770    -0.8400     0.5660 ha         1 RTF       0.130000
     41 H11          7.4650    -2.9380     0.0760 ha         1 RTF       0.085000
     42 H12          5.0100    -2.9490    -0.1640 ha         1 RTF       0.088000
     43 H14         -8.6700     1.1810     0.1420 ha         1 RTF       0.112000
     44 H15         -5.4980     3.6850    -1.4110 h4         1 RTF       0.022100
     45 H16         -6.6700    -0.4830     2.4980 hc         1 RTF       0.043367
     46 H17         -8.0970    -0.7360     1.4840 hc         1 RTF       0.043367
     47 H18         -6.5620    -1.4990     1.0510 hc         1 RTF       0.043367
     48 H19         -8.6940     4.1290    -0.6770 hc         1 RTF       0.040033
     49 H20         -7.8150     4.0190    -2.2110 hc         1 RTF       0.040033
     50 H21         -9.0700     2.8330    -1.8250 hc         1 RTF       0.040033
@<TRIPOS>BOND
     1     1     2 ar  
     2     1     4 ar  
     3     1    13 1   
     4     2     6 ar  
     5     2    31 1   
     6     3     4 ar  
     7     3     5 ar  
     8     3    32 1   
     9     4    33 1   
    10     5     6 ar  
    11     5     9 1   
    12     6     7 1   
    13     7     8 1   
    14     7    10 1   
    15     8     9 2   
    16     8    11 1   
    17    10    34 1   
    18    10    35 1   
    19    10    36 1   
    20    11    12 1   
    21    11    37 1   
    22    11    38 1   
    23    12    14 1   
    24    13    23 1   
    25    14    15 ar  
    26    14    19 ar  
    27    15    16 ar  
    28    15    39 1   
    29    16    17 ar  
    30    16    20 1   
    31    17    18 ar  
    32    17    40 1   
    33    18    19 ar  
    34    18    41 1   
    35    19    42 1   
    36    20    21 1   
    37    20    22 1   
    38    23    24 ar  
    39    23    28 ar  
    40    24    25 ar  
    41    24    29 1   
    42    25    26 ar  
    43    25    43 1   
    44    26    27 ar  
    45    26    30 1   
    46    27    28 ar  
    47    27    44 1   
    48    29    45 1   
    49    29    46 1   
    50    29    47 1   
    51    30    48 1   
    52    30    49 1   
    53    30    50 1   
@<TRIPOS>SUBSTRUCTURE
     1 RTF         1 TEMP              0 ****  ****    0 ROOT
