@<TRIPOS>MOLECULE
RTH
   43    45     1     0     0
SMALL
bcc


@<TRIPOS>ATOM
      1 C4           1.0150     1.5500    -0.5080 ca         1 RTH      -0.078000
      2 C5           2.2910     0.9690    -0.4050 ca         1 RTH      -0.199300
      3 C6           2.5330    -0.0550     0.5410 ca         1 RTH       0.461600
      4 C8           4.7320    -0.2670    -0.0810 ca         1 RTH       0.688200
      5 C10          3.3840     1.3570    -1.2230 ca         1 RTH      -0.043000
      6 C13         -3.7660     1.6630    -0.0330 ca         1 RTH      -0.112000
      7 C15         -2.6860     3.7980     0.1090 ca         1 RTH      -0.124000
      8 C20         -2.3560    -3.0710    -0.2170 c3         1 RTH       0.038100
      9 C21         -0.9530    -3.5070     0.2260 c3         1 RTH      -0.081433
     10 C22         -2.5980    -3.4930    -1.6730 c3         1 RTH      -0.081433
     11 C23         -3.4090    -3.7200     0.6900 c3         1 RTH      -0.081433
     12 C19         -2.4510    -1.6130    -0.1160 c1         1 RTH      -0.104100
     13 C12         -2.5310     1.0130     0.0610 ca         1 RTH       0.049000
     14 C14         -3.8460     3.0440    -0.0070 ca         1 RTH      -0.129000
     15 C16         -1.4580     3.1630     0.2100 ca         1 RTH      -0.123000
     16 C11         -1.3530     1.7740     0.1930 cp         1 RTH      -0.012000
     17 C1          -0.0240     1.1390     0.2980 cp         1 RTH      -0.056000
     18 C9           4.5900     0.7570    -1.0710 ca         1 RTH      -0.298300
     19 N17          5.9440    -0.8400     0.1020 nv         1 RTH      -0.964500
     20 N7           3.7370    -0.6540     0.6850 nb         1 RTH      -0.763000
     21 C3           1.4600    -0.4590     1.3660 ca         1 RTH      -0.195300
     22 C2           0.2260     0.1210     1.2460 ca         1 RTH      -0.084000
     23 H4           0.8560     2.3240    -1.2510 ha         1 RTH       0.131000
     24 H10          3.2470     2.1340    -1.9660 ha         1 RTH       0.134000
     25 H13         -4.6650     1.0690    -0.1390 ha         1 RTH       0.137000
     26 H15         -2.7370     4.8790     0.1300 ha         1 RTH       0.132000
     27 H21         -0.7730    -3.2480     1.2690 hc         1 RTH       0.039256
     28 H21A        -0.8510    -4.5880     0.1220 hc         1 RTH       0.039256
     29 H21B        -0.1790    -3.0290    -0.3760 hc         1 RTH       0.039256
     30 H22         -1.8620    -3.0450    -2.3420 hc         1 RTH       0.039256
     31 H22A        -2.5220    -4.5780    -1.7610 hc         1 RTH       0.039256
     32 H22B        -3.5910    -3.1960    -2.0110 hc         1 RTH       0.039256
     33 H23         -4.4180    -3.4210     0.4020 hc         1 RTH       0.039256
     34 H23A        -3.3420    -4.8060     0.6120 hc         1 RTH       0.039256
     35 H23B        -3.2570    -3.4460     1.7340 hc         1 RTH       0.039256
     36 H14         -4.8100     3.5300    -0.0830 ha         1 RTH       0.133000
     37 H16         -0.5590     3.7570     0.3220 ha         1 RTH       0.134000
     38 H9           5.4370     1.0390    -1.6830 ha         1 RTH       0.137000
     39 HN17         5.9900    -1.6860     0.6460 hn         1 RTH       0.425800
     40 HN1A         6.6530    -0.7340    -0.6030 hn         1 RTH       0.425800
     41 H3           1.6320    -1.2350     2.1020 ha         1 RTH       0.146000
     42 H2          -0.5730    -0.2010     1.9010 ha         1 RTH       0.139000
     43 C18         -2.4870    -0.4100    -0.0240 cg         1 RTH      -0.133000
@<TRIPOS>BOND
     1     1     2 ar  
     2     1    17 ar  
     3     1    23 1   
     4     2     3 ar  
     5     2     5 ar  
     6     3    20 ar  
     7     3    21 ar  
     8     4    18 ar  
     9     4    19 1   
    10     4    20 ar  
    11     5    18 ar  
    12     5    24 1   
    13     6    13 ar  
    14     6    14 ar  
    15     6    25 1   
    16     7    14 ar  
    17     7    15 ar  
    18     7    26 1   
    19     8     9 1   
    20     8    10 1   
    21     8    11 1   
    22     8    12 1   
    23     9    27 1   
    24     9    28 1   
    25     9    29 1   
    26    10    30 1   
    27    10    31 1   
    28    10    32 1   
    29    11    33 1   
    30    11    34 1   
    31    11    35 1   
    32    12    43 3   
    33    13    16 ar  
    34    13    43 1   
    35    14    36 1   
    36    15    16 ar  
    37    15    37 1   
    38    16    17 1   
    39    17    22 ar  
    40    18    38 1   
    41    19    39 1   
    42    19    40 1   
    43    21    22 ar  
    44    21    41 1   
    45    22    42 1   
@<TRIPOS>SUBSTRUCTURE
     1 RTH         1 TEMP              0 ****  ****    0 ROOT
