@<TRIPOS>MOLECULE
RTH
   43    45     1     0     0
SMALL
No Charge or Current Charge


@<TRIPOS>ATOM
      1 C4           1.0480     1.5520    -0.5010 ca         1 RTH      -0.060000
      2 C5           2.3210     0.9610    -0.3960 ca         1 RTH      -0.134000
      3 C6           2.5700    -0.0520     0.5680 ca         1 RTH       0.331000
      4 C8           4.7460    -0.2330    -0.1230 ca         1 RTH       0.622900
      5 C10          3.3610     1.3680    -1.2510 ca         1 RTH      -0.025000
      6 C13         -3.8020     1.6750    -0.0780 ca         1 RTH      -0.094000
      7 C15         -2.7170     3.8370     0.1500 ca         1 RTH      -0.106000
      8 C20         -2.3360    -3.0810    -0.2340 c3         1 RTH       0.038100
      9 C21         -0.9090    -3.4740     0.2260 c3         1 RTH      -0.081433
     10 C22         -2.5600    -3.5330    -1.6990 c3         1 RTH      -0.081433
     11 C23         -3.3890    -3.7430     0.6900 c3         1 RTH      -0.081433
     12 C19         -2.4750    -1.6170    -0.1540 c1         1 RTH      -0.104100
     13 C12         -2.5580     1.0250     0.0350 ca         1 RTH       0.049000
     14 C14         -3.8830     3.0760    -0.0180 ca         1 RTH      -0.111000
     15 C16         -1.4720     3.1970     0.2620 ca         1 RTH      -0.105000
     16 C11         -1.3650     1.7850     0.2160 cp         1 RTH      -0.012000
     17 C1          -0.0140     1.1500     0.3410 cp         1 RTH      -0.056000
     18 C9           4.6100     0.7480    -1.1060 ca         1 RTH      -0.215000
     19 N17          5.8760    -0.9020     0.1060 nv         1 RTH      -1.074900
     20 N7           3.7840    -0.6390     0.6920 nb         1 RTH      -0.763000
     21 C3           1.5170    -0.4420     1.4130 ca         1 RTH      -0.112000
     22 C2           0.2470     0.1490     1.3080 ca         1 RTH      -0.066000
     23 H4           0.8700     2.3220    -1.2490 ha         1 RTH       0.113000
     24 H10          3.2070     2.1400    -2.0020 ha         1 RTH       0.116000
     25 H13         -4.7110     1.0930    -0.2190 ha         1 RTH       0.119000
     26 H15         -2.7770     4.9230     0.1930 ha         1 RTH       0.114000
     27 H21         -0.7260    -3.1580     1.2610 hc         1 RTH       0.039256
     28 H21A        -0.7680    -4.5610     0.1760 hc         1 RTH       0.039256
     29 H21B        -0.1460    -3.0060    -0.4090 hc         1 RTH       0.039256
     30 H22         -1.8270    -3.0710    -2.3720 hc         1 RTH       0.039256
     31 H22A        -2.4610    -4.6220    -1.7900 hc         1 RTH       0.039256
     32 H22B        -3.5630    -3.2570    -2.0490 hc         1 RTH       0.039256
     33 H23         -4.4080    -3.4710     0.3860 hc         1 RTH       0.039256
     34 H23A        -3.3070    -4.8360     0.6520 hc         1 RTH       0.039256
     35 H23B        -3.2510    -3.4310     1.7320 hc         1 RTH       0.039256
     36 H14         -4.8480     3.5700    -0.1060 ha         1 RTH       0.115000
     37 H16         -0.5760     3.7990     0.3970 ha         1 RTH       0.116000
     38 H9           5.4470     1.0230    -1.7390 ha         1 RTH       0.119000
     39 HN17         5.7550    -1.7350     0.6690 hn         1 RTH       0.481000
     40 HN1A         6.5430    -0.9670    -0.6550 hn         1 RTH       0.481000
     41 H3           1.6900    -1.2110     2.1610 ha         1 RTH       0.128000
     42 H2          -0.5430    -0.1680     1.9840 ha         1 RTH       0.121000
     43 C18         -2.5310    -0.4070    -0.0720 cg         1 RTH      -0.133000
@<TRIPOS>BOND
     1     1     2 ar  
     2     1    17 ar  
     3     1    23 1   
     4     2     3 ar  
     5     2     5 ar  
     6     3    20 ar  
     7     3    21 ar  
     8     4    18 ar  
     9     4    19 1   
    10     4    20 ar  
    11     5    18 ar  
    12     5    24 1   
    13     6    13 ar  
    14     6    14 ar  
    15     6    25 1   
    16     7    14 ar  
    17     7    15 ar  
    18     7    26 1   
    19     8     9 1   
    20     8    10 1   
    21     8    11 1   
    22     8    12 1   
    23     9    27 1   
    24     9    28 1   
    25     9    29 1   
    26    10    30 1   
    27    10    31 1   
    28    10    32 1   
    29    11    33 1   
    30    11    34 1   
    31    11    35 1   
    32    12    43 3   
    33    13    16 ar  
    34    13    43 1   
    35    14    36 1   
    36    15    16 ar  
    37    15    37 1   
    38    16    17 1   
    39    17    22 ar  
    40    18    38 1   
    41    19    39 1   
    42    19    40 1   
    43    21    22 ar  
    44    21    41 1   
    45    22    42 1   
@<TRIPOS>SUBSTRUCTURE
     1 RTH         1 TEMP              0 ****  ****    0 ROOT
