@<TRIPOS>MOLECULE
RTI
   40    43     1     0     0
SMALL
abcg2


@<TRIPOS>ATOM
      1 C18        -49.4510   -29.1690     6.7280 ca         1 RTI      -0.034200
      2 C16        -49.7770   -29.2060     4.3220 ca         1 RTI      -0.015000
      3 C17        -50.3190   -29.0900     5.6040 ca         1 RTI      -0.121800
      4 C15        -48.4100   -29.4070     4.1670 ca         1 RTI      -0.163600
      5 C14        -47.8780   -29.5330     2.7730 c          1 RTI       0.605700
      6 C12        -45.9730   -30.2630     1.3920 c5         1 RTI       0.165000
      7 C11        -46.0810   -31.6560     0.8040 ca         1 RTI      -0.036300
      8 C10        -47.1540   -32.5330     0.8430 ca         1 RTI      -0.120000
      9 C20        -51.5410   -28.8610     7.4830 cc         1 RTI      -0.185100
     10 C02        -43.7360   -30.4550     2.7670 c          1 RTI       0.718000
     11 C03        -44.4430   -30.0160     1.4570 c5         1 RTI      -0.198700
     12 C04        -43.8940   -30.8540     0.2690 c5         1 RTI      -0.014100
     13 C05        -44.8950   -31.9760     0.1500 ca         1 RTI      -0.151300
     14 C06        -44.7740   -33.2030    -0.4920 ca         1 RTI       0.133100
     15 C08        -45.8430   -34.1010    -0.4620 ca         1 RTI      -0.157000
     16 C09        -47.0190   -33.7650     0.2010 ca         1 RTI      -0.097000
     17 C21        -51.6450   -28.8950     6.1180 cd         1 RTI      -0.226200
     18 C22        -48.0760   -29.3570     6.5850 ca         1 RTI      -0.151000
     19 C23        -47.5720   -29.4770     5.3040 ca         1 RTI      -0.048000
     20 N13        -46.6520   -30.0730     2.6510 ns         1 RTI      -0.474900
     21 N19        -50.2220   -29.0240     7.8510 na         1 RTI      -0.238700
     22 O01        -42.5490   -30.0730     2.8880 o          1 RTI      -0.728000
     23 O07        -43.6360   -33.5860    -1.1500 oh         1 RTI      -0.560100
     24 O24        -48.5410   -29.1600     1.7950 o          1 RTI      -0.664100
     25 O25        -44.3700   -31.1630     3.5980 o          1 RTI      -0.728000
     26 H161       -50.4060   -29.1480     3.4440 ha         1 RTI       0.133000
     27 H121       -46.4120   -29.5560     0.6840 h1         1 RTI       0.061700
     28 H101       -48.0670   -32.2750     1.3640 ha         1 RTI       0.118000
     29 H201       -52.3020   -28.7330     8.2340 h4         1 RTI       0.201000
     30 H031       -44.2190   -28.9590     1.3170 hc         1 RTI       0.053700
     31 H041       -42.8720   -31.1910     0.4520 hc         1 RTI       0.042200
     32 H042       -43.8750   -30.2550    -0.6480 hc         1 RTI       0.042200
     33 H081       -45.7390   -35.0590    -0.9560 ha         1 RTI       0.108000
     34 H091       -47.8360   -34.4750     0.2180 ha         1 RTI       0.096000
     35 H211       -52.5530   -28.7910     5.5480 ha         1 RTI       0.199000
     36 H221       -47.4230   -29.4010     7.4480 ha         1 RTI       0.113000
     37 H231       -46.5040   -29.6050     5.1850 ha         1 RTI       0.147000
     38 H131       -46.1540   -30.4810     3.4350 hn         1 RTI       0.373500
     39 H191       -49.8840   -29.0440     8.7990 hn         1 RTI       0.342000
     40 H071       -42.9680   -32.8910    -1.0860 ho         1 RTI       0.463000
@<TRIPOS>BOND
     1     1     3 ar  
     2     1    18 ar  
     3     1    21 1   
     4     2     3 ar  
     5     2     4 ar  
     6     2    26 1   
     7     3    17 1   
     8     4     5 1   
     9     4    19 ar  
    10     5    20 1   
    11     5    24 2   
    12     6     7 1   
    13     6    11 1   
    14     6    20 1   
    15     6    27 1   
    16     7     8 ar  
    17     7    13 ar  
    18     8    16 ar  
    19     8    28 1   
    20     9    17 2   
    21     9    21 1   
    22     9    29 1   
    23    10    11 1   
    24    10    22 1   
    25    10    25 1   
    26    11    12 1   
    27    11    30 1   
    28    12    13 1   
    29    12    31 1   
    30    12    32 1   
    31    13    14 ar  
    32    14    15 ar  
    33    14    23 1   
    34    15    16 ar  
    35    15    33 1   
    36    16    34 1   
    37    17    35 1   
    38    18    19 ar  
    39    18    36 1   
    40    19    37 1   
    41    20    38 1   
    42    21    39 1   
    43    23    40 1   
@<TRIPOS>SUBSTRUCTURE
     1 RTI         1 TEMP              0 ****  ****    0 ROOT
