@<TRIPOS>MOLECULE
RTI
   40    43     1     0     0
SMALL
No Charge or Current Charge


@<TRIPOS>ATOM
      1 C18        -49.1950   -29.4330     6.7750 ca         1 RTI      -0.034200
      2 C16        -49.7110   -29.3880     4.4090 ca         1 RTI      -0.015000
      3 C17        -50.0830   -29.2800     5.7540 ca         1 RTI      -0.121800
      4 C15        -48.3510   -29.6670     4.1090 ca         1 RTI      -0.163600
      5 C14        -47.9340   -29.7880     2.6580 c          1 RTI       0.605700
      6 C12        -46.1110   -30.0860     1.0470 c5         1 RTI       0.165000
      7 C11        -46.2000   -31.4650     0.4340 ca         1 RTI      -0.036300
      8 C10        -47.3130   -32.0180    -0.2220 ca         1 RTI      -0.120000
      9 C20        -51.2200   -29.0020     7.7630 cc         1 RTI      -0.185100
     10 C02        -44.0080   -28.9820     2.2360 c          1 RTI       0.718000
     11 C03        -44.5300   -29.9420     1.1290 c5         1 RTI      -0.198700
     12 C04        -43.9670   -31.4070     1.3140 c5         1 RTI      -0.014100
     13 C05        -45.0300   -32.1920     0.5810 ca         1 RTI      -0.151300
     14 C06        -44.9350   -33.5050     0.0870 ca         1 RTI       0.133100
     15 C08        -46.0410   -34.0710    -0.5720 ca         1 RTI      -0.157000
     16 C09        -47.2300   -33.3290    -0.7290 ca         1 RTI      -0.097000
     17 C21        -51.3510   -29.0100     6.3810 cd         1 RTI      -0.226200
     18 C22        -47.8470   -29.7110     6.5300 ca         1 RTI      -0.151000
     19 C23        -47.4260   -29.8280     5.1860 ca         1 RTI      -0.048000
     20 N13        -46.5960   -30.0180     2.4240 ns         1 RTI      -0.474900
     21 N19        -49.8510   -29.2720     7.9850 na         1 RTI      -0.238700
     22 O01        -43.4040   -27.9770     1.8920 o          1 RTI      -0.728000
     23 O07        -43.7910   -34.2310     0.2390 oh         1 RTI      -0.560100
     24 O24        -48.7450   -29.6850     1.7450 o          1 RTI      -0.664100
     25 O25        -44.1650   -29.2650     3.4160 o          1 RTI      -0.728000
     26 H161       -50.4520   -29.2580     3.6240 ha         1 RTI       0.133000
     27 H121       -46.5520   -29.3130     0.4020 h1         1 RTI       0.061700
     28 H101       -48.2280   -31.4420    -0.3360 ha         1 RTI       0.118000
     29 H201       -51.9420   -28.8380     8.5600 h4         1 RTI       0.201000
     30 H031       -44.1930   -29.5460     0.1650 hc         1 RTI       0.053700
     31 H041       -43.9120   -31.7070     2.3670 hc         1 RTI       0.042200
     32 H042       -42.9660   -31.5140     0.8820 hc         1 RTI       0.042200
     33 H081       -45.9800   -35.0840    -0.9610 ha         1 RTI       0.108000
     34 H091       -48.0830   -33.7700    -1.2380 ha         1 RTI       0.096000
     35 H211       -52.2850   -28.8350     5.8510 ha         1 RTI       0.199000
     36 H221       -47.1420   -29.8340     7.3490 ha         1 RTI       0.113000
     37 H231       -46.3770   -30.0490     5.0030 ha         1 RTI       0.147000
     38 H131       -45.9630   -29.9980     3.2160 hn         1 RTI       0.373500
     39 H191       -49.4060   -29.3390     8.8960 hn         1 RTI       0.342000
     40 H071       -43.1480   -33.6810     0.7330 ho         1 RTI       0.463000
@<TRIPOS>BOND
     1     1     3 ar  
     2     1    18 ar  
     3     1    21 1   
     4     2     3 ar  
     5     2     4 ar  
     6     2    26 1   
     7     3    17 1   
     8     4     5 1   
     9     4    19 ar  
    10     5    20 1   
    11     5    24 2   
    12     6     7 1   
    13     6    11 1   
    14     6    20 1   
    15     6    27 1   
    16     7     8 ar  
    17     7    13 ar  
    18     8    16 ar  
    19     8    28 1   
    20     9    17 2   
    21     9    21 1   
    22     9    29 1   
    23    10    11 1   
    24    10    22 1   
    25    10    25 1   
    26    11    12 1   
    27    11    30 1   
    28    12    13 1   
    29    12    31 1   
    30    12    32 1   
    31    13    14 ar  
    32    14    15 ar  
    33    14    23 1   
    34    15    16 ar  
    35    15    33 1   
    36    16    34 1   
    37    17    35 1   
    38    18    19 ar  
    39    18    36 1   
    40    19    37 1   
    41    20    38 1   
    42    21    39 1   
    43    23    40 1   
@<TRIPOS>SUBSTRUCTURE
     1 RTI         1 TEMP              0 ****  ****    0 ROOT
