@<TRIPOS>MOLECULE
RTJ
   48    51     1     0     0
SMALL
No Charge or Current Charge


@<TRIPOS>ATOM
      1 C4          27.9940     0.0080    14.3640 ca         1 RTJ       0.161000
      2 C14         31.6770     8.3520    12.7450 c3         1 RTJ       0.181100
      3 C5          26.7470    -0.5450    14.0100 ca         1 RTJ       0.030100
      4 C6          25.9540     0.1310    13.0590 ca         1 RTJ       0.161000
      5 C11         31.6610     7.5030    15.0910 c          1 RTJ       0.566000
      6 C7          28.8520     4.1340    12.6400 ca         1 RTJ       0.402900
      7 C8          29.7710     6.1490    12.0740 ca         1 RTJ       0.146900
      8 C9          30.4020     6.2260    13.3360 ca         1 RTJ      -0.234000
      9 C10         30.1100     5.1760    14.2380 ca         1 RTJ       0.396900
     10 C12         31.0790     6.4930    16.1300 c6         1 RTJ       0.161500
     11 C13         29.8940     7.1740    16.8670 c3         1 RTJ      -0.117100
     12 N2          29.0060     5.0990    11.7230 nb         1 RTJ      -0.253000
     13 C3          28.4360     1.2070    13.7870 ca         1 RTJ      -0.185500
     14 N3          29.3490     4.1290    13.8830 nb         1 RTJ      -0.289000
     15 C1          26.3980     1.3330    12.4850 ca         1 RTJ      -0.185500
     16 C2          27.6330     1.8850    12.8540 ca         1 RTJ       0.347000
     17 N4          31.1870     7.3810    13.7580 n          1 RTJ      -0.193400
     18 N5          30.6040     5.1920    15.5610 nh         1 RTJ      -0.774300
     19 F1          24.7530    -0.3700    12.6890 f          1 RTJ      -0.171000
     20 F2          28.7840    -0.6230    15.2640 f          1 RTJ      -0.171000
     21 O2          26.3150    -1.7240    14.5770 oh         1 RTJ      -0.509100
     22 C15         32.7520     7.8120    11.8960 c1         1 RTJ      -0.181100
     23 C16         33.6250     7.3390    11.2040 c1         1 RTJ      -0.203000
     24 C17         30.8290     3.9470    16.3360 c3         1 RTJ       0.262800
     25 C18         29.6220     3.5170    17.1650 cx         1 RTJ      -0.157700
     26 C19         29.7520     2.4290    18.2070 cx         1 RTJ      -0.127900
     27 C20         29.5100     3.8580    18.6350 cx         1 RTJ      -0.127900
     28 H1          32.0430     9.2630    13.2340 h1         1 RTJ       0.080200
     29 H2          30.8400     8.6680    12.1110 h1         1 RTJ       0.080200
     30 H3          29.8800     6.9240    11.3180 h4         1 RTJ       0.031100
     31 H4          31.8890     6.3240    16.8540 h1         1 RTJ       0.093700
     32 H5          29.5020     6.5380    17.6680 hc         1 RTJ       0.054700
     33 H6          30.2050     8.1210    17.3240 hc         1 RTJ       0.054700
     34 H7          29.0690     7.3910    16.1780 hc         1 RTJ       0.054700
     35 H8          27.5430     3.2850    11.3830 hn         1 RTJ       0.516000
     36 H9          29.4110     1.5900    14.0620 ha         1 RTJ       0.154000
     37 H10         25.7680     1.8380    11.7590 ha         1 RTJ       0.154000
     38 H11         27.0000    -2.0430    15.2060 ho         1 RTJ       0.476000
     39 H12         34.3960     6.9080    10.5950 ha         1 RTJ       0.258000
     40 H13         31.0910     3.1280    15.6510 h1         1 RTJ       0.063700
     41 H14         31.6970     4.0680    16.9990 h1         1 RTJ       0.063700
     42 H15         28.7020     3.5190    16.5870 hc         1 RTJ       0.094700
     43 H16         28.9300     1.7240    18.3060 hc         1 RTJ       0.072950
     44 H17         30.7370     2.0070    18.3890 hc         1 RTJ       0.072950
     45 H18         30.3340     4.3940    19.1010 hc         1 RTJ       0.072950
     46 H19         28.5260     4.1140    19.0200 hc         1 RTJ       0.072950
     47 N1          28.0320     3.0820    12.2550 nu         1 RTJ      -0.927900
     48 O1          32.4840     8.3520    15.4280 o          1 RTJ      -0.534000
@<TRIPOS>BOND
     1     1     3 ar  
     2     1    13 ar  
     3     1    20 1   
     4     2    17 1   
     5     2    22 1   
     6     2    28 1   
     7     2    29 1   
     8     3     4 ar  
     9     3    21 1   
    10     4    15 ar  
    11     4    19 1   
    12     5    10 1   
    13     5    17 1   
    14     5    48 2   
    15     6    12 ar  
    16     6    14 ar  
    17     6    47 1   
    18     7     8 ar  
    19     7    12 ar  
    20     7    30 1   
    21     8     9 ar  
    22     8    17 1   
    23     9    14 ar  
    24     9    18 1   
    25    10    11 1   
    26    10    18 1   
    27    10    31 1   
    28    11    32 1   
    29    11    33 1   
    30    11    34 1   
    31    13    16 ar  
    32    13    36 1   
    33    15    16 ar  
    34    15    37 1   
    35    16    47 1   
    36    18    24 1   
    37    21    38 1   
    38    22    23 3   
    39    23    39 1   
    40    24    25 1   
    41    24    40 1   
    42    24    41 1   
    43    25    26 1   
    44    25    27 1   
    45    25    42 1   
    46    26    27 1   
    47    26    43 1   
    48    26    44 1   
    49    27    45 1   
    50    27    46 1   
    51    35    47 1   
@<TRIPOS>SUBSTRUCTURE
     1 RTJ         1 TEMP              0 ****  ****    0 ROOT
