@<TRIPOS>MOLECULE
RTJ
   48    51     1     0     0
SMALL
abcg2


@<TRIPOS>ATOM
      1 C4          27.7030     0.3030    14.5520 ca         1 RTJ       0.161000
      2 C14         31.7240     8.1940    12.8690 c3         1 RTJ       0.181100
      3 C5          26.8740    -0.5470    13.8380 ca         1 RTJ       0.030100
      4 C6          26.4430    -0.0580    12.6100 ca         1 RTJ       0.161000
      5 C11         31.7610     7.3100    15.1350 c          1 RTJ       0.566000
      6 C7          28.7150     4.2760    12.7840 ca         1 RTJ       0.402900
      7 C8          29.5380     6.3370    12.3620 ca         1 RTJ       0.146900
      8 C9          30.2750     6.3130    13.5250 ca         1 RTJ      -0.234000
      9 C10         30.1160     5.1650    14.3290 ca         1 RTJ       0.396900
     10 C12         31.1130     6.3670    16.1340 c6         1 RTJ       0.161500
     11 C13         29.9110     7.0680    16.7730 c3         1 RTJ      -0.117100
     12 N2          28.7450     5.3380    11.9850 nb         1 RTJ      -0.253000
     13 C3          28.0920     1.5540    14.1170 ca         1 RTJ      -0.185500
     14 N3          29.3560     4.1520    13.9370 nb         1 RTJ      -0.289000
     15 C1          26.7960     1.1810    12.1300 ca         1 RTJ      -0.185500
     16 C2          27.6310     2.0150    12.8840 ca         1 RTJ       0.347000
     17 N4          31.2230     7.2830    13.8850 n          1 RTJ      -0.193400
     18 N5          30.7760     5.1040    15.5010 nh         1 RTJ      -0.774300
     19 F1          25.6490    -0.8420    11.8700 f          1 RTJ      -0.171000
     20 F2          28.1500    -0.1280    15.7450 f          1 RTJ      -0.171000
     21 O2          26.4780    -1.7700    14.2390 oh         1 RTJ      -0.509100
     22 C15         32.4620     7.4960    11.8210 c1         1 RTJ      -0.181100
     23 C16         33.0670     6.9180    10.9600 c1         1 RTJ      -0.203000
     24 C17         30.8480     3.8700    16.2620 c3         1 RTJ       0.262800
     25 C18         29.6870     3.6200    17.1910 cx         1 RTJ      -0.157700
     26 C19         29.8590     2.5990    18.2730 cx         1 RTJ      -0.127900
     27 C20         29.7560     4.0520    18.6240 cx         1 RTJ      -0.127900
     28 H1          32.3700     8.9200    13.3580 h1         1 RTJ       0.080200
     29 H2          30.8970     8.7610    12.4340 h1         1 RTJ       0.080200
     30 H3          29.5890     7.1800    11.6820 h4         1 RTJ       0.031100
     31 H4          31.8630     6.1620    16.8980 h1         1 RTJ       0.093700
     32 H5          29.4700     6.4350    17.5400 hc         1 RTJ       0.054700
     33 H6          30.2220     8.0020    17.2410 hc         1 RTJ       0.054700
     34 H7          29.1450     7.2950    16.0320 hc         1 RTJ       0.054700
     35 H8          27.4990     3.4500    11.4450 hn         1 RTJ       0.516000
     36 H9          28.7420     2.1510    14.7360 ha         1 RTJ       0.154000
     37 H10         26.4180     1.4960    11.1650 ha         1 RTJ       0.154000
     38 H11         26.8370    -1.9780    15.1100 ho         1 RTJ       0.476000
     39 H12         33.6110     6.4040    10.1990 ha         1 RTJ       0.258000
     40 H13         30.9380     3.0490    15.5500 h1         1 RTJ       0.063700
     41 H14         31.7800     3.8930    16.8330 h1         1 RTJ       0.063700
     42 H15         28.7110     3.6610    16.7190 hc         1 RTJ       0.094700
     43 H16         29.0230     1.9510    18.5020 hc         1 RTJ       0.072950
     44 H17         30.8280     2.1240    18.3690 hc         1 RTJ       0.072950
     45 H18         30.6550     4.5550    18.9600 hc         1 RTJ       0.072950
     46 H19         28.8480     4.4040    19.0980 hc         1 RTJ       0.072950
     47 N1          27.9320     3.2510    12.3340 nu         1 RTJ      -0.927900
     48 O1          32.6490     8.0720    15.4640 o          1 RTJ      -0.534000
@<TRIPOS>BOND
     1     1     3 ar  
     2     1    13 ar  
     3     1    20 1   
     4     2    17 1   
     5     2    22 1   
     6     2    28 1   
     7     2    29 1   
     8     3     4 ar  
     9     3    21 1   
    10     4    15 ar  
    11     4    19 1   
    12     5    10 1   
    13     5    17 1   
    14     5    48 2   
    15     6    12 ar  
    16     6    14 ar  
    17     6    47 1   
    18     7     8 ar  
    19     7    12 ar  
    20     7    30 1   
    21     8     9 ar  
    22     8    17 1   
    23     9    14 ar  
    24     9    18 1   
    25    10    11 1   
    26    10    18 1   
    27    10    31 1   
    28    11    32 1   
    29    11    33 1   
    30    11    34 1   
    31    13    16 ar  
    32    13    36 1   
    33    15    16 ar  
    34    15    37 1   
    35    16    47 1   
    36    18    24 1   
    37    21    38 1   
    38    22    23 3   
    39    23    39 1   
    40    24    25 1   
    41    24    40 1   
    42    24    41 1   
    43    25    26 1   
    44    25    27 1   
    45    25    42 1   
    46    26    27 1   
    47    26    43 1   
    48    26    44 1   
    49    27    45 1   
    50    27    46 1   
    51    35    47 1   
@<TRIPOS>SUBSTRUCTURE
     1 RTJ         1 TEMP              0 ****  ****    0 ROOT
