@<TRIPOS>MOLECULE
RTK
   26    25     1     0     0
SMALL
abcg2


@<TRIPOS>ATOM
      1 O7           2.7010    -1.4000    -0.0890 o          1 RTK      -0.801000
      2 P5           2.6530     0.1020    -0.2640 p5         1 RTK       1.236400
      3 O4           3.7740     0.9610     0.2780 o          1 RTK      -0.801000
      4 C6           1.0560     0.7310     0.3860 c3         1 RTK      -0.428400
      5 C3          -0.1460    -0.0240    -0.1730 c3         1 RTK      -0.061400
      6 C2          -1.4230     0.6040     0.3520 c3         1 RTK       0.099600
      7 N1          -2.7040    -0.0920    -0.0360 n4         1 RTK      -0.498000
      8 C28         -2.8040    -1.4190     0.6310 c3         1 RTK       0.076900
      9 C9          -3.8380     0.7610     0.4180 c3         1 RTK       0.076900
     10 C8          -2.7930    -0.2650    -1.5110 c3         1 RTK       0.076900
     11 H5           2.4780     0.3900    -1.6600 hp         1 RTK      -0.211400
     12 H61C         1.0830     0.6500     1.4770 hc         1 RTK       0.058700
     13 H62C         0.9820     1.7960     0.1500 hc         1 RTK       0.058700
     14 H31C        -0.1220     0.0190    -1.2650 hc         1 RTK       0.063700
     15 H32C        -0.0660    -1.0750     0.1110 hc         1 RTK       0.063700
     16 H21C        -1.4170     0.6320     1.4420 hx         1 RTK       0.082700
     17 H22C        -1.5160     1.6280    -0.0090 hx         1 RTK       0.082700
     18 H281        -2.7360    -1.2810     1.7070 hx         1 RTK       0.091478
     19 H282        -3.7590    -1.8710     0.3770 hx         1 RTK       0.091478
     20 H283        -2.0000    -2.0640     0.2900 hx         1 RTK       0.091478
     21 H91C        -3.7830     1.7220    -0.0870 hx         1 RTK       0.091478
     22 H92C        -4.7760     0.2700     0.1720 hx         1 RTK       0.091478
     23 H93C        -3.7680     0.9060     1.4930 hx         1 RTK       0.091478
     24 H81C        -2.0520    -0.9850    -1.8430 hx         1 RTK       0.091478
     25 H82C        -3.7860    -0.6310    -1.7600 hx         1 RTK       0.091478
     26 H83C        -2.6210     0.6920    -1.9950 hx         1 RTK       0.091478
@<TRIPOS>BOND
     1     1     2 1   
     2     2     3 1   
     3     2     4 1   
     4     2    11 1   
     5     4     5 1   
     6     4    12 1   
     7     4    13 1   
     8     5     6 1   
     9     5    14 1   
    10     5    15 1   
    11     6     7 1   
    12     6    16 1   
    13     6    17 1   
    14     7     8 1   
    15     7     9 1   
    16     7    10 1   
    17     8    18 1   
    18     8    19 1   
    19     8    20 1   
    20     9    21 1   
    21     9    22 1   
    22     9    23 1   
    23    10    24 1   
    24    10    25 1   
    25    10    26 1   
@<TRIPOS>SUBSTRUCTURE
     1 RTK         1 TEMP              0 ****  ****    0 ROOT
