@<TRIPOS>MOLECULE
RTK
   26    25     1     0     0
SMALL
No Charge or Current Charge


@<TRIPOS>ATOM
      1 O7           2.9590    -1.2710     0.4430 o          1 RTK      -0.801000
      2 P5           2.7360     0.0600    -0.2020 p5         1 RTK       1.236400
      3 O4           3.8420     1.0370     0.0420 o          1 RTK      -0.801000
      4 C6           1.1280     0.7720     0.3360 c3         1 RTK      -0.428400
      5 C3          -0.1120    -0.0300    -0.1250 c3         1 RTK      -0.061400
      6 C2          -1.4350     0.6180     0.3390 c3         1 RTK       0.099600
      7 N1          -2.7500    -0.0750    -0.0510 n4         1 RTK      -0.498000
      8 C28         -2.8050    -1.4930     0.5340 c3         1 RTK       0.076900
      9 C9          -3.9200     0.7390     0.5150 c3         1 RTK       0.076900
     10 C8          -2.8880    -0.1440    -1.5790 c3         1 RTK       0.076900
     11 H5           2.4720    -0.0810    -1.5910 hp         1 RTK      -0.211400
     12 H61C         1.1570     0.8370     1.4290 hc         1 RTK       0.058700
     13 H62C         1.0880     1.7910    -0.0640 hc         1 RTK       0.058700
     14 H31C        -0.1080    -0.1050    -1.2190 hc         1 RTK       0.063700
     15 H32C        -0.0500    -1.0520     0.2690 hc         1 RTK       0.063700
     16 H21C        -1.4180     0.6870     1.4290 hx         1 RTK       0.082700
     17 H22C        -1.4750     1.6350    -0.0560 hx         1 RTK       0.082700
     18 H281        -2.6970    -1.4390     1.6190 hx         1 RTK       0.091478
     19 H282        -3.7640    -1.9500     0.2820 hx         1 RTK       0.091478
     20 H283        -1.9940    -2.0900     0.1130 hx         1 RTK       0.091478
     21 H91C        -3.8910     1.7480     0.0980 hx         1 RTK       0.091478
     22 H92C        -4.8610     0.2560     0.2430 hx         1 RTK       0.091478
     23 H93C        -3.8320     0.7880     1.6020 hx         1 RTK       0.091478
     24 H81C        -2.0770    -0.7480    -1.9890 hx         1 RTK       0.091478
     25 H82C        -3.8480    -0.5980    -1.8340 hx         1 RTK       0.091478
     26 H83C        -2.8390     0.8670    -1.9900 hx         1 RTK       0.091478
@<TRIPOS>BOND
     1     1     2 1   
     2     2     3 1   
     3     2     4 1   
     4     2    11 1   
     5     4     5 1   
     6     4    12 1   
     7     4    13 1   
     8     5     6 1   
     9     5    14 1   
    10     5    15 1   
    11     6     7 1   
    12     6    16 1   
    13     6    17 1   
    14     7     8 1   
    15     7     9 1   
    16     7    10 1   
    17     8    18 1   
    18     8    19 1   
    19     8    20 1   
    20     9    21 1   
    21     9    22 1   
    22     9    23 1   
    23    10    24 1   
    24    10    25 1   
    25    10    26 1   
@<TRIPOS>SUBSTRUCTURE
     1 RTK         1 TEMP              0 ****  ****    0 ROOT
