@<TRIPOS>MOLECULE
RTL
   51    51     1     0     0
SMALL
No Charge or Current Charge


@<TRIPOS>ATOM
      1 C1           0.5640     4.6780    -7.7990 c6         1 RTL       0.001200
      2 C2           0.9310     6.1620    -8.0960 c6         1 RTL      -0.068400
      3 C3          -0.2090     7.1270    -7.7240 c6         1 RTL      -0.071400
      4 C4          -0.4690     7.0750    -6.2070 c6         1 RTL      -0.041200
      5 C5          -0.5590     5.6570    -5.6390 c2         1 RTL      -0.098400
      6 C6          -0.0750     4.5660    -6.3350 ce         1 RTL      -0.081200
      7 C7          -0.2210     3.1810    -5.8450 ce         1 RTL      -0.159000
      8 C8          -1.3580     2.6530    -5.3050 cf         1 RTL      -0.188000
      9 C9          -1.5620     1.2820    -4.8290 cf         1 RTL      -0.060200
     10 C10         -2.8260     0.8330    -4.5700 ce         1 RTL      -0.182000
     11 C11         -3.2180    -0.5020    -4.0890 ce         1 RTL      -0.171000
     12 C12         -4.5020    -0.8540    -3.7920 cf         1 RTL      -0.175000
     13 C13         -4.9730    -2.1580    -3.3180 cf         1 RTL      -0.066200
     14 C14         -6.2930    -2.3550    -3.0730 c2         1 RTL      -0.210200
     15 C15         -6.9560    -3.6240    -2.5820 c3         1 RTL       0.198800
     16 O1          -8.3650    -3.4170    -2.4630 oh         1 RTL      -0.656000
     17 C16          1.8890     3.8310    -7.9860 c3         1 RTL      -0.081600
     18 C17         -0.4360     4.1490    -8.9120 c3         1 RTL      -0.081600
     19 C18         -1.1920     5.6690    -4.2240 c3         1 RTL      -0.056900
     20 C19         -0.3200     0.4310    -4.5750 c3         1 RTL      -0.055900
     21 C20         -3.9330    -3.2560    -3.1130 c3         1 RTL      -0.056900
     22 H21          1.8300     6.4440    -7.5290 hc         1 RTL       0.041200
     23 H22          1.1910     6.2880    -9.1560 hc         1 RTL       0.041200
     24 H31          0.0550     8.1520    -8.0190 hc         1 RTL       0.042200
     25 H32         -1.1260     6.8750    -8.2730 hc         1 RTL       0.042200
     26 H41          0.3340     7.6130    -5.6850 hc         1 RTL       0.045200
     27 H42         -1.3950     7.6250    -5.9900 hc         1 RTL       0.045200
     28 H7           0.6420     2.5320    -5.9760 ha         1 RTL       0.174000
     29 H8          -2.2290     3.3080    -5.2510 ha         1 RTL       0.173000
     30 H10         -3.6520     1.5250    -4.7480 ha         1 RTL       0.169000
     31 H11         -2.4290    -1.2450    -3.9800 ha         1 RTL       0.172000
     32 H12         -5.2690    -0.0870    -3.9180 ha         1 RTL       0.171000
     33 H14         -6.9890    -1.5320    -3.2360 ha         1 RTL       0.179000
     34 H151        -6.7520    -4.4400    -3.2870 h1         1 RTL       0.023700
     35 H152        -6.5320    -3.9050    -1.6090 h1         1 RTL       0.023700
     36 HO1         -8.7480    -4.2640    -2.1430 ho         1 RTL       0.440000
     37 H161         1.6980     2.7520    -7.9560 hc         1 RTL       0.034200
     38 H162         2.3670     4.0410    -8.9510 hc         1 RTL       0.034200
     39 H163         2.6190     4.0610    -7.2000 hc         1 RTL       0.034200
     40 H171        -0.6410     3.0790    -8.7820 hc         1 RTL       0.034200
     41 H172        -1.4020     4.6650    -8.8650 hc         1 RTL       0.034200
     42 H173        -0.0310     4.2870    -9.9210 hc         1 RTL       0.034200
     43 H181        -0.9450     4.7650    -3.6560 hc         1 RTL       0.041033
     44 H182        -0.8290     6.5190    -3.6330 hc         1 RTL       0.041033
     45 H183        -2.2840     5.7450    -4.2820 hc         1 RTL       0.041033
     46 H191        -0.4620    -0.2740    -3.7490 hc         1 RTL       0.041700
     47 H192        -0.0490    -0.1460    -5.4670 hc         1 RTL       0.041700
     48 H193         0.5450     1.0400    -4.2920 hc         1 RTL       0.041700
     49 H201        -4.3630    -4.1910    -2.7390 hc         1 RTL       0.041700
     50 H202        -3.4230    -3.4940    -4.0540 hc         1 RTL       0.041700
     51 H203        -3.1700    -2.9450    -2.3890 hc         1 RTL       0.041700
@<TRIPOS>BOND
     1     1     2 1   
     2     1     6 1   
     3     1    17 1   
     4     1    18 1   
     5     2     3 1   
     6     2    22 1   
     7     2    23 1   
     8     3     4 1   
     9     3    24 1   
    10     3    25 1   
    11     4     5 1   
    12     4    26 1   
    13     4    27 1   
    14     5     6 2   
    15     5    19 1   
    16     6     7 1   
    17     7     8 2   
    18     7    28 1   
    19     8     9 1   
    20     8    29 1   
    21     9    10 2   
    22     9    20 1   
    23    10    11 1   
    24    10    30 1   
    25    11    12 2   
    26    11    31 1   
    27    12    13 1   
    28    12    32 1   
    29    13    14 2   
    30    13    21 1   
    31    14    15 1   
    32    14    33 1   
    33    15    16 1   
    34    15    34 1   
    35    15    35 1   
    36    16    36 1   
    37    17    37 1   
    38    17    38 1   
    39    17    39 1   
    40    18    40 1   
    41    18    41 1   
    42    18    42 1   
    43    19    43 1   
    44    19    44 1   
    45    19    45 1   
    46    20    46 1   
    47    20    47 1   
    48    20    48 1   
    49    21    49 1   
    50    21    50 1   
    51    21    51 1   
@<TRIPOS>SUBSTRUCTURE
     1 RTL         1 TEMP              0 ****  ****    0 ROOT
