@<TRIPOS>MOLECULE
RTL
   51    51     1     0     0
SMALL
bcc


@<TRIPOS>ATOM
      1 C1           0.5980     4.6750    -7.6840 c6         1 RTL       0.001200
      2 C2           0.8640     6.1490    -8.0110 c6         1 RTL      -0.068400
      3 C3          -0.3400     7.0290    -7.7370 c6         1 RTL      -0.071400
      4 C4          -0.6600     6.9790    -6.2550 c6         1 RTL      -0.041200
      5 C5          -0.6610     5.5850    -5.6900 c2         1 RTL      -0.098400
      6 C6          -0.1440     4.5330    -6.3530 ce         1 RTL      -0.081200
      7 C7          -0.2670     3.1560    -5.8540 ce         1 RTL      -0.109000
      8 C8          -1.4150     2.5930    -5.4440 cf         1 RTL      -0.138000
      9 C9          -1.5700     1.2240    -4.9770 cf         1 RTL      -0.060200
     10 C10         -2.8110     0.8090    -4.6270 ce         1 RTL      -0.132000
     11 C11         -3.1960    -0.4960    -4.1550 ce         1 RTL      -0.121000
     12 C12         -4.4650    -0.8010    -3.8200 cf         1 RTL      -0.125000
     13 C13         -4.9330    -2.0950    -3.3410 cf         1 RTL      -0.066200
     14 C14         -6.2440    -2.2340    -3.0770 c2         1 RTL      -0.160200
     15 C15         -6.9700    -3.4580    -2.6310 c3         1 RTL       0.175600
     16 O1          -7.7670    -3.1210    -1.5120 oh         1 RTL      -0.593800
     17 C16          1.9590     3.9670    -7.6220 c3         1 RTL      -0.081600
     18 C17         -0.2330     4.0310    -8.8010 c3         1 RTL      -0.081600
     19 C18         -1.2660     5.5140    -4.3160 c3         1 RTL      -0.056900
     20 C19         -0.3480     0.3590    -4.9120 c3         1 RTL      -0.055900
     21 C20         -3.9160    -3.1870    -3.1870 c3         1 RTL      -0.056900
     22 H21          1.7040     6.5090    -7.4060 hc         1 RTL       0.041200
     23 H22          1.1810     6.2290    -9.0550 hc         1 RTL       0.041200
     24 H31         -0.1460     8.0570    -8.0480 hc         1 RTL       0.042200
     25 H32         -1.2030     6.6870    -8.3160 hc         1 RTL       0.042200
     26 H41          0.0580     7.5900    -5.6940 hc         1 RTL       0.045200
     27 H42         -1.6370     7.4320    -6.0560 hc         1 RTL       0.045200
     28 H7           0.6300     2.5450    -5.8780 ha         1 RTL       0.124000
     29 H8          -2.3240     3.1880    -5.4700 ha         1 RTL       0.123000
     30 H10         -3.6180     1.5330    -4.7110 ha         1 RTL       0.119000
     31 H11         -2.4290    -1.2570    -4.0700 ha         1 RTL       0.122000
     32 H12         -5.2230    -0.0270    -3.9160 ha         1 RTL       0.121000
     33 H14         -6.8840    -1.3680    -3.2350 ha         1 RTL       0.129000
     34 H151        -7.5940    -3.8110    -3.4640 h1         1 RTL       0.023700
     35 H152        -6.2770    -4.2740    -2.3990 h1         1 RTL       0.023700
     36 HO1         -8.3630    -3.8560    -1.3410 ho         1 RTL       0.401000
     37 H161         1.8670     2.8830    -7.5540 hc         1 RTL       0.034200
     38 H162         2.5270     4.1830    -8.5300 hc         1 RTL       0.034200
     39 H163         2.5470     4.3160    -6.7710 hc         1 RTL       0.034200
     40 H171        -0.4380     2.9810    -8.5870 hc         1 RTL       0.034200
     41 H172        -1.1920     4.5330    -8.9360 hc         1 RTL       0.034200
     42 H173         0.3050     4.0760    -9.7520 hc         1 RTL       0.034200
     43 H181        -1.0090     4.6050    -3.7780 hc         1 RTL       0.041033
     44 H182        -0.9280     6.3690    -3.7250 hc         1 RTL       0.041033
     45 H183        -2.3570     5.5810    -4.3550 hc         1 RTL       0.041033
     46 H191        -0.5530    -0.6470    -4.5570 hc         1 RTL       0.041700
     47 H192         0.1190     0.2720    -5.8960 hc         1 RTL       0.041700
     48 H193         0.4010     0.7960    -4.2480 hc         1 RTL       0.041700
     49 H201        -4.3270    -4.0920    -2.7470 hc         1 RTL       0.041700
     50 H202        -3.4880    -3.4600    -4.1540 hc         1 RTL       0.041700
     51 H203        -3.0870    -2.8600    -2.5570 hc         1 RTL       0.041700
@<TRIPOS>BOND
     1     1     2 1   
     2     1     6 1   
     3     1    17 1   
     4     1    18 1   
     5     2     3 1   
     6     2    22 1   
     7     2    23 1   
     8     3     4 1   
     9     3    24 1   
    10     3    25 1   
    11     4     5 1   
    12     4    26 1   
    13     4    27 1   
    14     5     6 2   
    15     5    19 1   
    16     6     7 1   
    17     7     8 2   
    18     7    28 1   
    19     8     9 1   
    20     8    29 1   
    21     9    10 2   
    22     9    20 1   
    23    10    11 1   
    24    10    30 1   
    25    11    12 2   
    26    11    31 1   
    27    12    13 1   
    28    12    32 1   
    29    13    14 2   
    30    13    21 1   
    31    14    15 1   
    32    14    33 1   
    33    15    16 1   
    34    15    34 1   
    35    15    35 1   
    36    16    36 1   
    37    17    37 1   
    38    17    38 1   
    39    17    39 1   
    40    18    40 1   
    41    18    41 1   
    42    18    42 1   
    43    19    43 1   
    44    19    44 1   
    45    19    45 1   
    46    20    46 1   
    47    20    47 1   
    48    20    48 1   
    49    21    49 1   
    50    21    50 1   
    51    21    51 1   
@<TRIPOS>SUBSTRUCTURE
     1 RTL         1 TEMP              0 ****  ****    0 ROOT
