@<TRIPOS>MOLECULE
RTM
   48    50     1     0     0
SMALL
abcg2


@<TRIPOS>ATOM
      1 N1          -3.8110     1.5410    -0.3370 nb         1 RTM      -0.760000
      2 N3           2.7440    -0.0620    -0.3110 n          1 RTM      -0.408800
      3 C4          -5.0470    -1.8970     0.2100 ca         1 RTM      -0.074000
      4 C5          -4.1800    -0.7860     0.2230 ca         1 RTM      -0.125000
      5 C6          -4.6020     0.4440    -0.3310 ca         1 RTM       0.323000
      6 C7          -2.6050     1.4680     0.1720 ca         1 RTM       0.615900
      7 C8          -2.0650     0.2660     0.7530 ca         1 RTM      -0.177300
      8 C10         -0.6600     0.2140     1.2810 c3         1 RTM      -0.011100
      9 C13          2.4140    -0.2400    -1.7130 c3         1 RTM       0.086300
     10 C15          4.8010    -1.4440    -0.3870 c6         1 RTM      -0.085900
     11 C17          7.0440    -0.2990    -0.4640 c6         1 RTM      -0.076400
     12 C16          6.2640    -1.5070     0.0430 c6         1 RTM      -0.073400
     13 C18          6.4010     1.0020     0.0030 c6         1 RTM      -0.073400
     14 C19          4.9380     1.0810    -0.4210 c6         1 RTM      -0.085900
     15 C14          4.1540    -0.1360     0.0700 c6         1 RTM       0.104700
     16 C12          1.7920     0.1150     0.6310 c          1 RTM       0.603100
     17 O1           2.0510     0.2590     1.8200 o          1 RTM      -0.613100
     18 C11          0.3550     0.1290     0.1430 c3         1 RTM      -0.160400
     19 C9          -2.8720    -0.8280     0.7670 ca         1 RTM      -0.032000
     20 C1          -6.3000    -1.7950    -0.3400 ca         1 RTM      -0.129000
     21 C2          -6.7230    -0.5720    -0.8930 ca         1 RTM      -0.091000
     22 C3          -5.8970     0.5240    -0.8900 ca         1 RTM      -0.103000
     23 N2          -1.8300     2.5850     0.0970 nv         1 RTM      -1.064900
     24 H4          -4.7080    -2.8340     0.6370 ha         1 RTM       0.111000
     25 H10         -0.4530     1.0790     1.9170 hc         1 RTM       0.059700
     26 H10A        -0.5590    -0.6580     1.9280 hc         1 RTM       0.059700
     27 H13          2.0810    -1.2560    -1.9390 h1         1 RTM       0.039033
     28 H13A         1.6410     0.4530    -2.0380 h1         1 RTM       0.039033
     29 H13B         3.2880    -0.0320    -2.3240 h1         1 RTM       0.039033
     30 H15          4.7500    -1.5360    -1.4770 hc         1 RTM       0.043200
     31 H15A         4.2470    -2.2900     0.0280 hc         1 RTM       0.043200
     32 H17          8.0830    -0.3520    -0.1300 hc         1 RTM       0.039700
     33 H17A         7.0660    -0.3180    -1.5590 hc         1 RTM       0.039700
     34 H16          6.3240    -1.5480     1.1360 hc         1 RTM       0.042700
     35 H16A         6.7140    -2.4320    -0.3240 hc         1 RTM       0.042700
     36 H18          6.4690     1.0700     1.0950 hc         1 RTM       0.042700
     37 H18A         6.9470     1.8610    -0.3940 hc         1 RTM       0.042700
     38 H19          4.4760     1.9910    -0.0280 hc         1 RTM       0.043200
     39 H19A         4.8870     1.1500    -1.5130 hc         1 RTM       0.043200
     40 H14          4.1810    -0.1230     1.1610 h1         1 RTM       0.087700
     41 H11          0.1570    -0.7700    -0.4480 hc         1 RTM       0.066700
     42 H11A         0.2200     0.9680    -0.5460 hc         1 RTM       0.066700
     43 H9          -2.5110    -1.7570     1.1960 ha         1 RTM       0.116000
     44 H1          -6.9630    -2.6490    -0.3520 ha         1 RTM       0.114000
     45 H2          -7.7120    -0.4960    -1.3270 ha         1 RTM       0.113000
     46 H3          -6.2210     1.4660    -1.3150 ha         1 RTM       0.128000
     47 HN2         -2.3110     3.4440    -0.1160 hn         1 RTM       0.475000
     48 HN2A        -1.0610     2.6940     0.7360 hn         1 RTM       0.475000
@<TRIPOS>BOND
     1     1     5 ar  
     2     1     6 ar  
     3     2     9 1   
     4     2    15 1   
     5     2    16 1   
     6     3     4 ar  
     7     3    20 ar  
     8     3    24 1   
     9     4     5 ar  
    10     4    19 ar  
    11     5    22 ar  
    12     6     7 ar  
    13     6    23 1   
    14     7     8 1   
    15     7    19 ar  
    16     8    18 1   
    17     8    25 1   
    18     8    26 1   
    19     9    27 1   
    20     9    28 1   
    21     9    29 1   
    22    10    12 1   
    23    10    15 1   
    24    10    30 1   
    25    10    31 1   
    26    11    12 1   
    27    11    13 1   
    28    11    32 1   
    29    11    33 1   
    30    12    34 1   
    31    12    35 1   
    32    13    14 1   
    33    13    36 1   
    34    13    37 1   
    35    14    15 1   
    36    14    38 1   
    37    14    39 1   
    38    15    40 1   
    39    16    17 2   
    40    16    18 1   
    41    18    41 1   
    42    18    42 1   
    43    19    43 1   
    44    20    21 ar  
    45    20    44 1   
    46    21    22 ar  
    47    21    45 1   
    48    22    46 1   
    49    23    47 1   
    50    23    48 1   
@<TRIPOS>SUBSTRUCTURE
     1 RTM         1 TEMP              0 ****  ****    0 ROOT
