@<TRIPOS>MOLECULE
RTM
   48    50     1     0     0
SMALL
No Charge or Current Charge


@<TRIPOS>ATOM
      1 N1          -4.0090     1.6250    -0.2130 nb         1 RTM      -0.760000
      2 N3           2.8080    -0.0870    -0.3350 n          1 RTM      -0.408800
      3 C4          -4.9670    -1.9380     0.0750 ca         1 RTM      -0.074000
      4 C5          -4.1970    -0.7620     0.1580 ca         1 RTM      -0.125000
      5 C6          -4.7270     0.4800    -0.2800 ca         1 RTM       0.323000
      6 C7          -2.7780     1.5550     0.2760 ca         1 RTM       0.615900
      7 C8          -2.1520     0.3830     0.7460 ca         1 RTM      -0.177300
      8 C10         -0.7270     0.3670     1.2970 c3         1 RTM      -0.011100
      9 C13          2.4560    -0.2110    -1.7740 c3         1 RTM       0.086300
     10 C15          4.8950    -1.5230    -0.3410 c6         1 RTM      -0.085900
     11 C17          7.1900    -0.4020    -0.4480 c6         1 RTM      -0.076400
     12 C16          6.3730    -1.5900     0.1180 c6         1 RTM      -0.073400
     13 C18          6.5480     0.9550    -0.0630 c6         1 RTM      -0.073400
     14 C19          5.0700     1.0270    -0.5200 c6         1 RTM      -0.085900
     15 C14          4.2490    -0.1640     0.0500 c6         1 RTM       0.104700
     16 C12          1.7950     0.1410     0.6340 c          1 RTM       0.603100
     17 O1           2.0820     0.2950     1.8150 o          1 RTM      -0.613100
     18 C11          0.3220     0.1840     0.1750 c3         1 RTM      -0.160400
     19 C9          -2.8910    -0.8100     0.6780 ca         1 RTM      -0.032000
     20 C1          -6.2710    -1.8890    -0.4430 ca         1 RTM      -0.129000
     21 C2          -6.8060    -0.6670    -0.8790 ca         1 RTM      -0.091000
     22 C3          -6.0360     0.5070    -0.7960 ca         1 RTM      -0.103000
     23 N2          -2.2260     2.7730     0.2680 nv         1 RTM      -1.064900
     24 H4          -4.5570    -2.8890     0.4120 ha         1 RTM       0.111000
     25 H10         -0.5140     1.2900     1.8520 hc         1 RTM       0.059700
     26 H10A        -0.6170    -0.4490     2.0230 hc         1 RTM       0.059700
     27 H13          1.8310    -1.0980    -1.9310 h1         1 RTM       0.039033
     28 H13A         1.9130     0.6830    -2.1060 h1         1 RTM       0.039033
     29 H13B         3.3550    -0.3100    -2.3940 h1         1 RTM       0.039033
     30 H15          4.8500    -1.6780    -1.4270 hc         1 RTM       0.043200
     31 H15A         4.3300    -2.3470     0.1160 hc         1 RTM       0.043200
     32 H17          8.2210    -0.4460    -0.0730 hc         1 RTM       0.039700
     33 H17A         7.2520    -0.4840    -1.5420 hc         1 RTM       0.039700
     34 H16          6.4210    -1.5830     1.2160 hc         1 RTM       0.042700
     35 H16A         6.8220    -2.5390    -0.2060 hc         1 RTM       0.042700
     36 H18          6.6070     1.0960     1.0260 hc         1 RTM       0.042700
     37 H18A         7.1180     1.7780    -0.5150 hc         1 RTM       0.042700
     38 H19          4.6270     1.9750    -0.1860 hc         1 RTM       0.043200
     39 H19A         5.0300     1.0320    -1.6170 hc         1 RTM       0.043200
     40 H14          4.3280    -0.0960     1.1450 h1         1 RTM       0.087700
     41 H11          0.1190    -0.7180    -0.4130 hc         1 RTM       0.066700
     42 H11A         0.2270     0.9650    -0.5870 hc         1 RTM       0.066700
     43 H9          -2.4620    -1.7500     1.0180 ha         1 RTM       0.116000
     44 H1          -6.8650    -2.7980    -0.5060 ha         1 RTM       0.114000
     45 H2          -7.8170    -0.6270    -1.2800 ha         1 RTM       0.113000
     46 H3          -6.4570     1.4490    -1.1350 ha         1 RTM       0.128000
     47 HN2         -2.8870     3.5230     0.1160 hn         1 RTM       0.475000
     48 HN2A        -1.4790     2.9540     0.9260 hn         1 RTM       0.475000
@<TRIPOS>BOND
     1     1     5 ar  
     2     1     6 ar  
     3     2     9 1   
     4     2    15 1   
     5     2    16 1   
     6     3     4 ar  
     7     3    20 ar  
     8     3    24 1   
     9     4     5 ar  
    10     4    19 ar  
    11     5    22 ar  
    12     6     7 ar  
    13     6    23 1   
    14     7     8 1   
    15     7    19 ar  
    16     8    18 1   
    17     8    25 1   
    18     8    26 1   
    19     9    27 1   
    20     9    28 1   
    21     9    29 1   
    22    10    12 1   
    23    10    15 1   
    24    10    30 1   
    25    10    31 1   
    26    11    12 1   
    27    11    13 1   
    28    11    32 1   
    29    11    33 1   
    30    12    34 1   
    31    12    35 1   
    32    13    14 1   
    33    13    36 1   
    34    13    37 1   
    35    14    15 1   
    36    14    38 1   
    37    14    39 1   
    38    15    40 1   
    39    16    17 2   
    40    16    18 1   
    41    18    41 1   
    42    18    42 1   
    43    19    43 1   
    44    20    21 ar  
    45    20    44 1   
    46    21    22 ar  
    47    21    45 1   
    48    22    46 1   
    49    23    47 1   
    50    23    48 1   
@<TRIPOS>SUBSTRUCTURE
     1 RTM         1 TEMP              0 ****  ****    0 ROOT
