@<TRIPOS>MOLECULE
RTN
   58    61     1     0     0
SMALL
No Charge or Current Charge


@<TRIPOS>ATOM
      1 C4          -2.1470    -1.6700     0.6150 ca         1 RTN       0.325000
      2 C5          -2.0820    -0.4210    -0.0510 ca         1 RTN      -0.127000
      3 C6          -3.2380     0.3700    -0.2050 ca         1 RTN      -0.063000
      4 C8           0.0980    -2.0070     0.2930 ca         1 RTN       0.617900
      5 C10         -0.8500     0.0260    -0.5610 ca         1 RTN      -0.028000
      6 C13         -6.7890     2.9680     0.4750 ca         1 RTN      -0.115000
      7 C15         -8.0200     1.1630    -0.5850 ca         1 RTN      -0.114000
      8 C17         -7.0160    -1.1000    -1.0490 c3         1 RTN      -0.048800
      9 C20          3.7780     0.9460    -0.4190 c          1 RTN       0.598100
     10 C22          6.2720     0.5630    -0.2380 c6         1 RTN       0.108700
     11 C24          8.3000     2.0400     0.2860 c6         1 RTN      -0.071900
     12 C26          8.6340    -0.4280    -0.2790 c6         1 RTN      -0.071900
     13 C23          6.8070     1.7600     0.5930 c6         1 RTN      -0.088900
     14 C25          9.1670     0.7800     0.5290 c6         1 RTN      -0.077400
     15 C27          7.1400    -0.6930     0.0330 c6         1 RTN      -0.088900
     16 N21          4.8700     0.2880     0.0970 ns         1 RTN      -0.506900
     17 O29          3.8850     1.8500    -1.2350 o          1 RTN      -0.609100
     18 C19          2.4250     0.4860     0.1280 c3         1 RTN      -0.163400
     19 C9           0.2820    -0.7890    -0.3900 ca         1 RTN      -0.179300
     20 N7          -1.0540    -2.4500     0.7780 nb         1 RTN      -0.762000
     21 N28          1.0570    -2.9040     0.5420 nv         1 RTN      -1.065900
     22 C3          -3.3890    -2.0960     1.1180 ca         1 RTN      -0.107000
     23 C2          -4.5420    -1.3070     0.9640 ca         1 RTN      -0.077000
     24 C1          -4.4880    -0.0640     0.2910 cp         1 RTN      -0.054000
     25 C11         -5.7050     0.7890     0.1320 cp         1 RTN      -0.035000
     26 C12         -5.6700     2.1280     0.5930 ca         1 RTN      -0.099000
     27 C14         -7.9660     2.4830    -0.1110 ca         1 RTN      -0.105000
     28 C16         -6.9020     0.3100    -0.4760 ca         1 RTN      -0.059300
     29 H6          -3.1740     1.3260    -0.7200 ha         1 RTN       0.116000
     30 H10         -0.7730     0.9830    -1.0740 ha         1 RTN       0.119000
     31 H13         -6.7430     3.9910     0.8410 ha         1 RTN       0.113000
     32 H15         -8.9370     0.8020    -1.0460 ha         1 RTN       0.110000
     33 H17         -7.2800    -1.8220    -0.2680 hc         1 RTN       0.043700
     34 H17A        -7.7880    -1.1570    -1.8260 hc         1 RTN       0.043700
     35 H17B        -6.0750    -1.4250    -1.5090 hc         1 RTN       0.043700
     36 H22          6.3350     0.8120    -1.3090 h1         1 RTN       0.081700
     37 H24          8.4070     2.3680    -0.7570 hc         1 RTN       0.042950
     38 H24A         8.6610     2.8670     0.9120 hc         1 RTN       0.042950
     39 H26          8.7600    -0.2390    -1.3550 hc         1 RTN       0.042950
     40 H26A         9.2280    -1.3220    -0.0480 hc         1 RTN       0.042950
     41 H23          6.2150     2.6590     0.3780 hc         1 RTN       0.043450
     42 H23A         6.6840     1.5550     1.6660 hc         1 RTN       0.043450
     43 H25         10.2100     0.9850     0.2510 hc         1 RTN       0.040200
     44 H25A         9.1710     0.5360     1.6000 hc         1 RTN       0.040200
     45 H27          7.0340    -1.0040     1.0820 hc         1 RTN       0.043450
     46 H27A         6.7810    -1.5320    -0.5790 hc         1 RTN       0.043450
     47 HN21         4.6770    -0.4400     0.7750 hn         1 RTN       0.308500
     48 H19          2.5700    -0.1400     1.0160 hc         1 RTN       0.064700
     49 H19A         1.8340     1.3710     0.3920 hc         1 RTN       0.064700
     50 H18          1.4960     0.2890    -1.8200 hc         1 RTN       0.059200
     51 H18A         2.2420    -1.1850    -1.2490 hc         1 RTN       0.059200
     52 HN28         0.7060    -3.8050     0.8400 hn         1 RTN       0.475000
     53 HN2A         1.8590    -2.9150    -0.0760 hn         1 RTN       0.475000
     54 H3          -3.4560    -3.0470     1.6380 ha         1 RTN       0.129000
     55 H2          -5.4840    -1.6560     1.3790 ha         1 RTN       0.117000
     56 H12         -4.7650     2.5130     1.0560 ha         1 RTN       0.114000
     57 H14         -8.8350     3.1300    -0.2030 ha         1 RTN       0.112000
     58 C18          1.6380    -0.3290    -0.9230 c3         1 RTN      -0.010100
@<TRIPOS>BOND
     1     1     2 ar  
     2     1    20 ar  
     3     1    22 ar  
     4     2     3 ar  
     5     2     5 ar  
     6     3    24 ar  
     7     3    29 1   
     8     4    19 ar  
     9     4    20 ar  
    10     4    21 1   
    11     5    19 ar  
    12     5    30 1   
    13     6    26 ar  
    14     6    27 ar  
    15     6    31 1   
    16     7    27 ar  
    17     7    28 ar  
    18     7    32 1   
    19     8    28 1   
    20     8    33 1   
    21     8    34 1   
    22     8    35 1   
    23     9    16 1   
    24     9    17 2   
    25     9    18 1   
    26    10    13 1   
    27    10    15 1   
    28    10    16 1   
    29    10    36 1   
    30    11    13 1   
    31    11    14 1   
    32    11    37 1   
    33    11    38 1   
    34    12    14 1   
    35    12    15 1   
    36    12    39 1   
    37    12    40 1   
    38    13    41 1   
    39    13    42 1   
    40    14    43 1   
    41    14    44 1   
    42    15    45 1   
    43    15    46 1   
    44    16    47 1   
    45    18    48 1   
    46    18    49 1   
    47    18    58 1   
    48    19    58 1   
    49    21    52 1   
    50    21    53 1   
    51    22    23 ar  
    52    22    54 1   
    53    23    24 ar  
    54    23    55 1   
    55    24    25 1   
    56    25    26 ar  
    57    25    28 ar  
    58    26    56 1   
    59    27    57 1   
    60    50    58 1   
    61    51    58 1   
@<TRIPOS>SUBSTRUCTURE
     1 RTN         1 TEMP              0 ****  ****    0 ROOT
