@<TRIPOS>MOLECULE
RTN
   58    61     1     0     0
SMALL
abcg2


@<TRIPOS>ATOM
      1 C4          -2.1630    -1.6120     0.6590 ca         1 RTN       0.325000
      2 C5          -2.1110    -0.4630    -0.1600 ca         1 RTN      -0.127000
      3 C6          -3.2620     0.3270    -0.3390 ca         1 RTN      -0.063000
      4 C8           0.0500    -2.1080     0.2770 ca         1 RTN       0.617900
      5 C10         -0.8650    -0.1630    -0.7660 ca         1 RTN      -0.028000
      6 C13         -6.6300     3.0730     0.2560 ca         1 RTN      -0.115000
      7 C15         -7.9440     1.2220    -0.5170 ca         1 RTN      -0.114000
      8 C17         -7.0370    -1.0940    -0.7610 c3         1 RTN      -0.048800
      9 C20          3.8440     0.3980    -0.6650 c          1 RTN       0.598100
     10 C22          6.2110     0.7870    -0.0590 c6         1 RTN       0.108700
     11 C24          8.2160     2.0580     0.7740 c6         1 RTN      -0.071900
     12 C26          8.5370    -0.0480    -0.5620 c6         1 RTN      -0.071900
     13 C23          6.7700     1.6630     1.0600 c6         1 RTN      -0.088900
     14 C25          9.0970     0.8330     0.5490 c6         1 RTN      -0.077400
     15 C27          7.0910    -0.4450    -0.2790 c6         1 RTN      -0.088900
     16 N21          4.8410     0.4150     0.2340 ns         1 RTN      -0.506900
     17 O29          3.9940     0.6890    -1.8450 o          1 RTN      -0.609100
     18 C19          2.4880     0.0240    -0.0970 c3         1 RTN      -0.163400
     19 C9           0.2250    -0.9510    -0.5630 ca         1 RTN      -0.179300
     20 N7          -1.0900    -2.4100     0.8520 nb         1 RTN      -0.762000
     21 N28          1.1110    -2.9180     0.5330 nv         1 RTN      -1.065900
     22 C3          -3.3870    -1.9300     1.2860 ca         1 RTN      -0.107000
     23 C2          -4.4940    -1.1460     1.0950 ca         1 RTN      -0.077000
     24 C1          -4.4530     0.0020     0.2710 cp         1 RTN      -0.054000
     25 C11         -5.6480     0.8600     0.0970 cp         1 RTN      -0.035000
     26 C12         -5.5480     2.2180     0.4010 ca         1 RTN      -0.099000
     27 C14         -7.8380     2.5700    -0.2030 ca         1 RTN      -0.105000
     28 C16         -6.8670     0.3490    -0.3770 ca         1 RTN      -0.059300
     29 H6          -3.2030     1.1980    -0.9820 ha         1 RTN       0.116000
     30 H10         -0.7850     0.7150    -1.3970 ha         1 RTN       0.119000
     31 H13         -6.5290     4.1220     0.5020 ha         1 RTN       0.113000
     32 H15         -8.8850     0.8380    -0.8920 ha         1 RTN       0.110000
     33 H17         -7.2450    -1.7230     0.1060 hc         1 RTN       0.043700
     34 H17A        -7.8730    -1.2120    -1.4500 hc         1 RTN       0.043700
     35 H17B        -6.1460    -1.4980    -1.2420 hc         1 RTN       0.043700
     36 H22          6.1960     1.3730    -0.9810 h1         1 RTN       0.081700
     37 H24          8.2480     2.6950    -0.1160 hc         1 RTN       0.042950
     38 H24A         8.6050     2.6600     1.5990 hc         1 RTN       0.042950
     39 H26          8.5820     0.4950    -1.5130 hc         1 RTN       0.042950
     40 H26A         9.1510    -0.9420    -0.6860 hc         1 RTN       0.042950
     41 H23          6.1460     2.5510     1.1780 hc         1 RTN       0.043450
     42 H23A         6.7260     1.1120     2.0070 hc         1 RTN       0.043450
     43 H25         10.1180     1.1410     0.3110 hc         1 RTN       0.040200
     44 H25A         9.1540     0.2540     1.4770 hc         1 RTN       0.040200
     45 H27          7.0500    -1.0740     0.6170 hc         1 RTN       0.043450
     46 H27A         6.6870    -1.0380    -1.1030 hc         1 RTN       0.043450
     47 HN21         4.6340     0.1210     1.1760 hn         1 RTN       0.308500
     48 H19          2.6040    -0.6420     0.7610 hc         1 RTN       0.064700
     49 H19A         2.0260     0.9380     0.2880 hc         1 RTN       0.064700
     50 H18          1.4190     0.1080    -1.9620 hc         1 RTN       0.059200
     51 H18A         2.0410    -1.4760    -1.5910 hc         1 RTN       0.059200
     52 HN28         0.9000    -3.8030     0.9650 hn         1 RTN       0.475000
     53 HN2A         1.8780    -2.9490    -0.1170 hn         1 RTN       0.475000
     54 H3          -3.4320    -2.8020     1.9260 ha         1 RTN       0.129000
     55 H2          -5.4170    -1.4030     1.6000 ha         1 RTN       0.117000
     56 H12         -4.6070     2.6060     0.7730 ha         1 RTN       0.114000
     57 H14         -8.6930     3.2230    -0.3240 ha         1 RTN       0.112000
     58 C18          1.5640    -0.5990    -1.1450 c3         1 RTN      -0.010100
@<TRIPOS>BOND
     1     1     2 ar  
     2     1    20 ar  
     3     1    22 ar  
     4     2     3 ar  
     5     2     5 ar  
     6     3    24 ar  
     7     3    29 1   
     8     4    19 ar  
     9     4    20 ar  
    10     4    21 1   
    11     5    19 ar  
    12     5    30 1   
    13     6    26 ar  
    14     6    27 ar  
    15     6    31 1   
    16     7    27 ar  
    17     7    28 ar  
    18     7    32 1   
    19     8    28 1   
    20     8    33 1   
    21     8    34 1   
    22     8    35 1   
    23     9    16 1   
    24     9    17 2   
    25     9    18 1   
    26    10    13 1   
    27    10    15 1   
    28    10    16 1   
    29    10    36 1   
    30    11    13 1   
    31    11    14 1   
    32    11    37 1   
    33    11    38 1   
    34    12    14 1   
    35    12    15 1   
    36    12    39 1   
    37    12    40 1   
    38    13    41 1   
    39    13    42 1   
    40    14    43 1   
    41    14    44 1   
    42    15    45 1   
    43    15    46 1   
    44    16    47 1   
    45    18    48 1   
    46    18    49 1   
    47    18    58 1   
    48    19    58 1   
    49    21    52 1   
    50    21    53 1   
    51    22    23 ar  
    52    22    54 1   
    53    23    24 ar  
    54    23    55 1   
    55    24    25 1   
    56    25    26 ar  
    57    25    28 ar  
    58    26    56 1   
    59    27    57 1   
    60    50    58 1   
    61    51    58 1   
@<TRIPOS>SUBSTRUCTURE
     1 RTN         1 TEMP              0 ****  ****    0 ROOT
