@<TRIPOS>MOLECULE
RTO
   37    37     1     0     0
SMALL
No Charge or Current Charge


@<TRIPOS>ATOM
      1 C13        127.5120   120.2520   117.6930 ca         1 RTO      -0.111000
      2 C15        128.0930   120.6410   120.0200 ca         1 RTO      -0.111000
      3 C17        126.6380   118.6170   119.4540 c          1 RTO       0.701600
      4 C01        133.5490   124.3000   120.8680 c3         1 RTO      -0.086100
      5 C02        132.5350   123.4490   120.0790 c3         1 RTO      -0.099900
      6 C03        132.4560   123.8430   118.5820 c3         1 RTO       0.227800
      7 C05        131.6590   121.6070   117.7170 c3         1 RTO       0.227800
      8 C06        133.0670   121.1520   117.2690 c3         1 RTO      -0.099900
      9 C07        133.1690   119.6260   117.0720 c3         1 RTO      -0.086100
     10 C11        128.9020   122.1670   118.2940 ca         1 RTO      -0.322500
     11 C12        128.2390   121.3950   117.3190 ca         1 RTO      -0.051500
     12 C14        127.4270   119.8560   119.0490 ca         1 RTO      -0.074600
     13 C16        128.8220   121.7840   119.6480 ca         1 RTO      -0.051500
     14 N04        131.4730   123.0770   117.7740 n3         1 RTO      -0.797500
     15 O09        129.7540   124.5840   118.9310 o          1 RTO      -0.572000
     16 O10        129.5170   124.0290   116.4420 o          1 RTO      -0.572000
     17 O18        126.5910   118.3110   120.6380 o          1 RTO      -0.711500
     18 O19        126.0770   117.9670   118.5820 o          1 RTO      -0.711500
     19 S08        129.8510   123.6350   117.8160 sy         1 RTO       1.214600
     20 H1         127.0110   119.6720   116.9220 ha         1 RTO       0.134000
     21 H2         128.0490   120.3660   121.0710 ha         1 RTO       0.134000
     22 H3         133.5770   123.9860   121.9190 hc         1 RTO       0.030367
     23 H4         134.5570   124.1890   120.4500 hc         1 RTO       0.030367
     24 H5         133.2740   125.3610   120.8340 hc         1 RTO       0.030367
     25 H6         131.5510   123.5520   120.5480 hc         1 RTO       0.051950
     26 H7         132.8210   122.3950   120.1700 hc         1 RTO       0.051950
     27 H8         133.4580   123.7140   118.1520 h1         1 RTO       0.052950
     28 H9         132.2470   124.9190   118.5100 h1         1 RTO       0.052950
     29 H10        130.9540   121.1810   116.9900 h1         1 RTO       0.052950
     30 H11        131.4330   121.1510   118.6900 h1         1 RTO       0.052950
     31 H12        133.8130   121.4550   118.0120 hc         1 RTO       0.051950
     32 H13        133.3240   121.6520   116.3270 hc         1 RTO       0.051950
     33 H14        134.1820   119.3480   116.7570 hc         1 RTO       0.030367
     34 H15        132.9420   119.0990   118.0060 hc         1 RTO       0.030367
     35 H16        132.4650   119.2860   116.3020 hc         1 RTO       0.030367
     36 H17        128.2890   121.6720   116.2670 ha         1 RTO       0.108000
     37 H18        129.3260   122.3670   120.4160 ha         1 RTO       0.108000
@<TRIPOS>BOND
     1     1    11 ar  
     2     1    12 ar  
     3     1    20 1   
     4     2    12 ar  
     5     2    13 ar  
     6     2    21 1   
     7     3    12 1   
     8     3    17 1   
     9     3    18 1   
    10     4     5 1   
    11     4    22 1   
    12     4    23 1   
    13     4    24 1   
    14     5     6 1   
    15     5    25 1   
    16     5    26 1   
    17     6    14 1   
    18     6    27 1   
    19     6    28 1   
    20     7     8 1   
    21     7    14 1   
    22     7    29 1   
    23     7    30 1   
    24     8     9 1   
    25     8    31 1   
    26     8    32 1   
    27     9    33 1   
    28     9    34 1   
    29     9    35 1   
    30    10    11 ar  
    31    10    13 ar  
    32    10    19 1   
    33    11    36 1   
    34    13    37 1   
    35    14    19 1   
    36    15    19 2   
    37    16    19 2   
@<TRIPOS>SUBSTRUCTURE
     1 RTO         1 TEMP              0 ****  ****    0 ROOT
