@<TRIPOS>MOLECULE
RTO
   37    37     1     0     0
SMALL
abcg2


@<TRIPOS>ATOM
      1 C13        127.8250   120.0840   118.5000 ca         1 RTO      -0.111000
      2 C15        127.5480   121.7970   120.1610 ca         1 RTO      -0.111000
      3 C17        126.2740   119.6140   120.4580 c          1 RTO       0.701600
      4 C01        132.7670   123.0180   121.5560 c3         1 RTO      -0.086100
      5 C02        131.9840   122.4640   120.3690 c3         1 RTO      -0.099900
      6 C03        132.2910   123.2470   119.0940 c3         1 RTO       0.227800
      7 C05        132.2420   121.4970   117.2890 c3         1 RTO       0.227800
      8 C06        133.3360   121.7990   116.2710 c3         1 RTO      -0.099900
      9 C07        133.9590   120.5200   115.7190 c3         1 RTO      -0.086100
     10 C11        128.9990   122.1660   118.2850 ca         1 RTO      -0.322500
     11 C12        128.6940   120.8990   117.7900 ca         1 RTO      -0.051500
     12 C14        127.2410   120.5190   119.6900 ca         1 RTO      -0.074600
     13 C16        128.4270   122.6200   119.4700 ca         1 RTO      -0.051500
     14 N04        131.6650   122.7180   117.8730 n3         1 RTO      -0.797500
     15 O09        129.9900   124.5440   117.8810 o          1 RTO      -0.572000
     16 O10        130.0370   122.8870   116.0170 o          1 RTO      -0.572000
     17 O18        125.7050   120.1140   121.4600 o          1 RTO      -0.711500
     18 O19        126.1280   118.4460   120.0200 o          1 RTO      -0.711500
     19 S08        130.1730   123.1840   117.4260 sy         1 RTO       1.214600
     20 H1         127.5810   119.0970   118.1310 ha         1 RTO       0.134000
     21 H2         127.0880   122.1400   121.0770 ha         1 RTO       0.134000
     22 H3         132.5380   122.4660   122.4690 hc         1 RTO       0.030367
     23 H4         133.8440   122.9500   121.3820 hc         1 RTO       0.030367
     24 H5         132.5240   124.0700   121.7290 hc         1 RTO       0.030367
     25 H6         130.9140   122.5110   120.5760 hc         1 RTO       0.051950
     26 H7         132.2310   121.4090   120.2220 hc         1 RTO       0.051950
     27 H8         133.3680   123.2450   118.9080 h1         1 RTO       0.052950
     28 H9         131.9900   124.2860   119.2070 h1         1 RTO       0.052950
     29 H10        131.4540   120.9100   116.8210 h1         1 RTO       0.052950
     30 H11        132.6410   120.8910   118.1060 h1         1 RTO       0.052950
     31 H12        134.1060   122.4170   116.7410 hc         1 RTO       0.051950
     32 H13        132.9040   122.3910   115.4600 hc         1 RTO       0.051950
     33 H14        134.7370   120.7470   114.9890 hc         1 RTO       0.030367
     34 H15        134.4110   119.9270   116.5180 hc         1 RTO       0.030367
     35 H16        133.2070   119.8980   115.2270 hc         1 RTO       0.030367
     36 H17        129.1200   120.5600   116.8560 ha         1 RTO       0.108000
     37 H18        128.6640   123.6070   119.8420 ha         1 RTO       0.108000
@<TRIPOS>BOND
     1     1    11 ar  
     2     1    12 ar  
     3     1    20 1   
     4     2    12 ar  
     5     2    13 ar  
     6     2    21 1   
     7     3    12 1   
     8     3    17 1   
     9     3    18 1   
    10     4     5 1   
    11     4    22 1   
    12     4    23 1   
    13     4    24 1   
    14     5     6 1   
    15     5    25 1   
    16     5    26 1   
    17     6    14 1   
    18     6    27 1   
    19     6    28 1   
    20     7     8 1   
    21     7    14 1   
    22     7    29 1   
    23     7    30 1   
    24     8     9 1   
    25     8    31 1   
    26     8    32 1   
    27     9    33 1   
    28     9    34 1   
    29     9    35 1   
    30    10    11 ar  
    31    10    13 ar  
    32    10    19 1   
    33    11    36 1   
    34    13    37 1   
    35    14    19 1   
    36    15    19 2   
    37    16    19 2   
@<TRIPOS>SUBSTRUCTURE
     1 RTO         1 TEMP              0 ****  ****    0 ROOT
