@<TRIPOS>MOLECULE
RTQ
   91    95     1     0     0
SMALL
No Charge or Current Charge


@<TRIPOS>ATOM
      1 CBM          0.1920    -6.1370   -17.8770 c3         1 RTQ       0.145900
      2 OBK         -0.4270    -4.8780   -17.5580 os         1 RTQ      -0.322100
      3 CBC          0.2880    -3.6930   -17.4890 ca         1 RTQ       0.114100
      4 CBA          1.6790    -3.6470   -17.7450 ca         1 RTQ      -0.169000
      5 CBB         -0.4020    -2.5040   -17.1510 ca         1 RTQ       0.112100
      6 OBJ         -1.7630    -2.5730   -16.9030 os         1 RTQ      -0.321100
      7 CBL         -2.5430    -1.4170   -16.5490 c3         1 RTQ       0.145900
      8 CAZ          0.3080    -1.2840   -17.0730 ca         1 RTQ      -0.169000
      9 CAY          1.6890    -1.2530   -17.3280 ca         1 RTQ      -0.106000
     10 CAW          2.3810    -2.4300   -17.6620 ca         1 RTQ      -0.084300
     11 CAV          3.8850    -2.3910   -17.9140 c3         1 RTQ      -0.026100
     12 CAU          4.6930    -3.2060   -16.8740 c3         1 RTQ      -0.069400
     13 CAT          4.3740    -2.8440   -15.3890 c3         1 RTQ       0.217600
     14 OAI          5.3310    -3.4700   -14.5120 os         1 RTQ      -0.435100
     15 C            5.3190    -4.8290   -14.3210 c          1 RTQ       0.584100
     16 O            4.6330    -5.5980   -14.9820 o          1 RTQ      -0.486000
     17 CA           6.5180    -5.3270   -13.4680 c6         1 RTQ       0.047700
     18 CB           6.2670    -5.0370   -11.9590 c6         1 RTQ      -0.073400
     19 CAC          6.6710    -3.6210   -11.5280 c6         1 RTQ      -0.078400
     20 CAE          8.1630    -3.4510   -11.8170 c6         1 RTQ      -0.094400
     21 CAF          8.4760    -3.6540   -13.3130 c6         1 RTQ       0.095000
     22 N            7.8750    -4.8590   -13.9770 n          1 RTQ      -0.391800
     23 CAJ          8.2940    -5.2410   -15.2850 c          1 RTQ       0.602100
     24 OAK          7.5480    -5.9200   -15.9810 o          1 RTQ      -0.602100
     25 CAL          9.7310    -4.8490   -15.7980 c3         1 RTQ       0.036700
     26 CAN         10.1980    -5.6130   -17.0980 c6         1 RTQ      -0.073700
     27 CAO         11.4810    -5.0150   -17.7580 c6         1 RTQ      -0.070400
     28 CAQ         11.8950    -5.7960   -19.0300 c6         1 RTQ      -0.072900
     29 CAS         12.1000    -7.2980   -18.7280 c6         1 RTQ      -0.075400
     30 CAR         10.8330    -7.9080   -18.0850 c6         1 RTQ      -0.072900
     31 CAP         10.4240    -7.1310   -16.8100 c6         1 RTQ      -0.070400
     32 NAM          9.8980    -3.3720   -15.9250 ns         1 RTQ      -0.491900
     33 CBR         11.0050    -2.6750   -15.4700 c          1 RTQ       0.598100
     34 OBS         11.9010    -3.2340   -14.8520 o          1 RTQ      -0.590100
     35 CBT         11.0630    -1.1560   -15.7560 c3         1 RTQ       0.015000
     36 NBP          9.8360    -0.5700   -16.3540 ns         1 RTQ      -0.518900
     37 CBO          8.8730     0.1050   -15.6250 c          1 RTQ       0.556100
     38 OBQ          8.8350     0.0360   -14.4040 o          1 RTQ      -0.546100
     39 CBN          7.8880     0.9460   -16.4750 c3         1 RTQ       0.081600
     40 OBI          6.7970     1.5120   -15.7060 os         1 RTQ      -0.314100
     41 CBE          5.7160     0.7630   -15.2820 ca         1 RTQ       0.128100
     42 CBG          5.6230    -0.6250   -15.5100 ca         1 RTQ      -0.168000
     43 CAX          4.4760    -1.3430   -15.1140 ca         1 RTQ      -0.077300
     44 CBH          3.4320    -0.6650   -14.4570 ca         1 RTQ      -0.116000
     45 CBF          3.5260     0.7160   -14.2140 ca         1 RTQ      -0.083000
     46 CBD          4.6650     1.4270   -14.6300 ca         1 RTQ      -0.126000
     47 HCF         -0.5560    -6.9400   -17.8720 h1         1 RTQ       0.039033
     48 HCG          0.6490    -6.1050   -18.8750 h1         1 RTQ       0.039033
     49 HBM          0.9670    -6.3890   -17.1420 h1         1 RTQ       0.039033
     50 HBA          2.2270    -4.5470   -18.0060 ha         1 RTQ       0.117000
     51 HBL         -3.5920    -1.6990   -16.3980 h1         1 RTQ       0.039033
     52 HCD         -2.1740    -0.9680   -15.6180 h1         1 RTQ       0.039033
     53 HCE         -2.5060    -0.6630   -17.3450 h1         1 RTQ       0.039033
     54 HAZ         -0.1900    -0.3550   -16.8150 ha         1 RTQ       0.119000
     55 HAY          2.2230    -0.3070   -17.2580 ha         1 RTQ       0.116000
     56 HAV          4.1000    -2.7860   -18.9140 hc         1 RTQ       0.049700
     57 HCC          4.2470    -1.3560   -17.9210 hc         1 RTQ       0.049700
     58 HAU          4.4840    -4.2650   -17.0540 hc         1 RTQ       0.054200
     59 HCB          5.7640    -3.0740   -17.0700 hc         1 RTQ       0.054200
     60 HAT          3.3550    -3.1810   -15.1500 h1         1 RTQ       0.078700
     61 HA           6.4850    -6.4200   -13.5860 h1         1 RTQ       0.102700
     62 HB2          5.2100    -5.2150   -11.7140 hc         1 RTQ       0.058200
     63 HB1          6.8340    -5.7650   -11.3610 hc         1 RTQ       0.058200
     64 HAC          6.0830    -2.8610   -12.0600 hc         1 RTQ       0.051700
     65 HB3          6.4760    -3.4820   -10.4560 hc         1 RTQ       0.051700
     66 HB4          8.7400    -4.1740   -11.2230 hc         1 RTQ       0.051700
     67 HAE          8.4980    -2.4540   -11.5020 hc         1 RTQ       0.051700
     68 HB5          9.5690    -3.6990   -13.3940 h1         1 RTQ       0.066200
     69 HAF          8.1410    -2.7610   -13.8610 h1         1 RTQ       0.066200
     70 HAL         10.3990    -5.1830   -14.9930 h1         1 RTQ       0.095700
     71 HAN          9.3810    -5.5110   -17.8260 hc         1 RTQ       0.068700
     72 HAO         12.3110    -5.0230   -17.0380 hc         1 RTQ       0.042450
     73 HB6         11.3180    -3.9660   -18.0400 hc         1 RTQ       0.042450
     74 HB8         12.8200    -5.3700   -19.4430 hc         1 RTQ       0.039450
     75 HAQ         11.1240    -5.6760   -19.8050 hc         1 RTQ       0.039450
     76 HAS         12.3450    -7.8360   -19.6540 hc         1 RTQ       0.039200
     77 HCA         12.9580    -7.4270   -18.0540 hc         1 RTQ       0.039200
     78 HAR         10.0060    -7.8940   -18.8090 hc         1 RTQ       0.039450
     79 HB9         11.0130    -8.9630   -17.8370 hc         1 RTQ       0.039450
     80 HB7          9.5180    -7.5890   -16.3930 hc         1 RTQ       0.042450
     81 HAP         11.2050    -7.2510   -16.0460 hc         1 RTQ       0.042450
     82 HAM          9.2020    -2.8350   -16.4290 hn         1 RTQ       0.321500
     83 HCI         11.8990    -0.9900   -16.4480 h1         1 RTQ       0.073200
     84 HBT         11.2960    -0.6460   -14.8130 h1         1 RTQ       0.073200
     85 HBP          9.8020    -0.4610   -17.3640 hn         1 RTQ       0.315500
     86 HBN          8.4810     1.7530   -16.9220 h1         1 RTQ       0.068700
     87 HCH          7.5140     0.3300   -17.3020 h1         1 RTQ       0.068700
     88 HBG          6.4300    -1.1610   -15.9970 ha         1 RTQ       0.116000
     89 HBH          2.5420    -1.2050   -14.1390 ha         1 RTQ       0.127000
     90 HBF          2.7140     1.2360   -13.7100 ha         1 RTQ       0.118000
     91 HBD          4.7310     2.4980   -14.4530 ha         1 RTQ       0.129000
@<TRIPOS>BOND
     1     1     2 1   
     2     1    47 1   
     3     1    48 1   
     4     1    49 1   
     5     2     3 1   
     6     3     4 ar  
     7     3     5 ar  
     8     4    10 ar  
     9     4    50 1   
    10     5     6 1   
    11     5     8 ar  
    12     6     7 1   
    13     7    51 1   
    14     7    52 1   
    15     7    53 1   
    16     8     9 ar  
    17     8    54 1   
    18     9    10 ar  
    19     9    55 1   
    20    10    11 1   
    21    11    12 1   
    22    11    56 1   
    23    11    57 1   
    24    12    13 1   
    25    12    58 1   
    26    12    59 1   
    27    13    14 1   
    28    13    43 1   
    29    13    60 1   
    30    14    15 1   
    31    15    16 2   
    32    15    17 1   
    33    17    18 1   
    34    17    22 1   
    35    17    61 1   
    36    18    19 1   
    37    18    62 1   
    38    18    63 1   
    39    19    20 1   
    40    19    64 1   
    41    19    65 1   
    42    20    21 1   
    43    20    66 1   
    44    20    67 1   
    45    21    22 1   
    46    21    68 1   
    47    21    69 1   
    48    22    23 1   
    49    23    24 2   
    50    23    25 1   
    51    25    26 1   
    52    25    32 1   
    53    25    70 1   
    54    26    27 1   
    55    26    31 1   
    56    26    71 1   
    57    27    28 1   
    58    27    72 1   
    59    27    73 1   
    60    28    29 1   
    61    28    74 1   
    62    28    75 1   
    63    29    30 1   
    64    29    76 1   
    65    29    77 1   
    66    30    31 1   
    67    30    78 1   
    68    30    79 1   
    69    31    80 1   
    70    31    81 1   
    71    32    33 1   
    72    32    82 1   
    73    33    34 2   
    74    33    35 1   
    75    35    36 1   
    76    35    83 1   
    77    35    84 1   
    78    36    37 1   
    79    36    85 1   
    80    37    38 2   
    81    37    39 1   
    82    39    40 1   
    83    39    86 1   
    84    39    87 1   
    85    40    41 1   
    86    41    42 ar  
    87    41    46 ar  
    88    42    43 ar  
    89    42    88 1   
    90    43    44 ar  
    91    44    45 ar  
    92    44    89 1   
    93    45    46 ar  
    94    45    90 1   
    95    46    91 1   
@<TRIPOS>SUBSTRUCTURE
     1 RTQ         1 TEMP              0 ****  ****    0 ROOT
