@<TRIPOS>MOLECULE
RTQ
   91    95     1     0     0
SMALL
abcg2


@<TRIPOS>ATOM
      1 CBM          0.2040    -5.4570   -19.5270 c3         1 RTQ       0.145900
      2 OBK         -0.5280    -4.7060   -18.5840 os         1 RTQ      -0.322100
      3 CBC          0.0810    -3.6630   -17.9870 ca         1 RTQ       0.114100
      4 CBA          1.3720    -3.2420   -18.2560 ca         1 RTQ      -0.169000
      5 CBB         -0.6930    -2.9710   -17.0310 ca         1 RTQ       0.112100
      6 OBJ         -1.9360    -3.4510   -16.8250 os         1 RTQ      -0.321100
      7 CBL         -2.7450    -2.8040   -15.8670 c3         1 RTQ       0.145900
      8 CAZ         -0.1450    -1.8740   -16.3900 ca         1 RTQ      -0.169000
      9 CAY          1.1540    -1.4560   -16.6830 ca         1 RTQ      -0.106000
     10 CAW          1.9260    -2.1310   -17.6090 ca         1 RTQ      -0.084300
     11 CAV          3.3360    -1.7100   -17.9270 c3         1 RTQ      -0.026100
     12 CAU          4.4050    -2.5850   -17.2690 c3         1 RTQ      -0.069400
     13 CAT          4.4130    -2.4750   -15.7510 c3         1 RTQ       0.217600
     14 OAI          5.4340    -3.3830   -15.2860 os         1 RTQ      -0.435100
     15 C            5.3090    -3.9120   -14.0780 c          1 RTQ       0.584100
     16 O            4.4030    -3.6710   -13.3230 o          1 RTQ      -0.486000
     17 CA           6.4050    -4.9360   -13.8020 c6         1 RTQ       0.047700
     18 CB           6.4440    -5.3770   -12.3410 c6         1 RTQ      -0.073400
     19 CAC          7.0540    -4.3230   -11.4280 c6         1 RTQ      -0.078400
     20 CAE          8.4260    -3.9250   -11.9500 c6         1 RTQ      -0.094400
     21 CAF          8.3380    -3.4730   -13.3990 c6         1 RTQ       0.095000
     22 N            7.7160    -4.4870   -14.2410 n          1 RTQ      -0.391800
     23 CAJ          8.2130    -4.9550   -15.4110 c          1 RTQ       0.602100
     24 OAK          7.5430    -5.6470   -16.1610 o          1 RTQ      -0.602100
     25 CAL          9.6800    -4.6330   -15.7530 c3         1 RTQ       0.036700
     26 CAN         10.2520    -5.6780   -16.7250 c6         1 RTQ      -0.073700
     27 CAO         11.5990    -5.2650   -17.3220 c6         1 RTQ      -0.070400
     28 CAQ         12.1200    -6.3310   -18.2810 c6         1 RTQ      -0.072900
     29 CAS         12.2500    -7.6880   -17.5990 c6         1 RTQ      -0.075400
     30 CAR         10.9290    -8.1040   -16.9640 c6         1 RTQ      -0.072900
     31 CAP         10.4060    -7.0280   -16.0170 c6         1 RTQ      -0.070400
     32 NAM          9.7760    -3.2730   -16.2500 ns         1 RTQ      -0.491900
     33 CBR         10.8040    -2.4650   -15.9190 c          1 RTQ       0.598100
     34 OBS         11.6240    -2.7340   -15.0570 o          1 RTQ      -0.590100
     35 CBT         10.9540    -1.1960   -16.7430 c3         1 RTQ       0.015000
     36 NBP          9.7250    -0.5240   -17.0770 ns         1 RTQ      -0.518900
     37 CBO          9.0240     0.1160   -16.1190 c          1 RTQ       0.556100
     38 OBQ          9.2200    -0.0550   -14.9310 o          1 RTQ      -0.546100
     39 CBN          8.0100     1.1200   -16.6480 c3         1 RTQ       0.081600
     40 OBI          7.1720     1.6110   -15.6440 os         1 RTQ      -0.314100
     41 CBE          6.1190     0.8670   -15.2370 ca         1 RTQ       0.128100
     42 CBG          5.8550    -0.4230   -15.6770 ca         1 RTQ      -0.168000
     43 CAX          4.7100    -1.0890   -15.2400 ca         1 RTQ      -0.077300
     44 CBH          3.8500    -0.4730   -14.3430 ca         1 RTQ      -0.116000
     45 CBF          4.1280     0.8140   -13.8940 ca         1 RTQ      -0.083000
     46 CBD          5.2520     1.4860   -14.3350 ca         1 RTQ      -0.126000
     47 HCF         -0.4600    -6.2430   -19.8800 h1         1 RTQ       0.039033
     48 HCG          0.5150    -4.8510   -20.3830 h1         1 RTQ       0.039033
     49 HBM          1.0920    -5.9190   -19.0850 h1         1 RTQ       0.039033
     50 HBA          1.9750    -3.7660   -18.9880 ha         1 RTQ       0.117000
     51 HBL         -3.6920    -3.3370   -15.8490 h1         1 RTQ       0.039033
     52 HCD         -2.3030    -2.8380   -14.8670 h1         1 RTQ       0.039033
     53 HCE         -2.9350    -1.7590   -16.1280 h1         1 RTQ       0.039033
     54 HAZ         -0.7170    -1.3210   -15.6570 ha         1 RTQ       0.119000
     55 HAY          1.5530    -0.5870   -16.1740 ha         1 RTQ       0.116000
     56 HAV          3.4910    -1.7540   -19.0080 hc         1 RTQ       0.049700
     57 HCC          3.4820    -0.6660   -17.6400 hc         1 RTQ       0.049700
     58 HAU          4.2350    -3.6310   -17.5410 hc         1 RTQ       0.054200
     59 HCB          5.3840    -2.3140   -17.6730 hc         1 RTQ       0.054200
     60 HAT          3.4440    -2.7990   -15.3650 h1         1 RTQ       0.078700
     61 HA           6.1350    -5.8030   -14.4110 h1         1 RTQ       0.102700
     62 HB2          5.4410    -5.6520   -12.0170 hc         1 RTQ       0.058200
     63 HB1          7.0480    -6.2870   -12.2950 hc         1 RTQ       0.058200
     64 HAC          6.4090    -3.4420   -11.3860 hc         1 RTQ       0.051700
     65 HB3          7.1270    -4.7090   -10.4100 hc         1 RTQ       0.051700
     66 HB4          9.1150    -4.7720   -11.8790 hc         1 RTQ       0.051700
     67 HAE          8.8500    -3.1130   -11.3570 hc         1 RTQ       0.051700
     68 HB5          9.3270    -3.2290   -13.7690 h1         1 RTQ       0.066200
     69 HAF          7.7480    -2.5510   -13.4630 h1         1 RTQ       0.066200
     70 HAL         10.2770    -4.6740   -14.8390 h1         1 RTQ       0.095700
     71 HAN          9.5470    -5.7990   -17.5540 hc         1 RTQ       0.068700
     72 HAO         12.3300    -5.1080   -16.5210 hc         1 RTQ       0.042450
     73 HB6         11.5080    -4.3180   -17.8600 hc         1 RTQ       0.042450
     74 HB8         13.0830    -6.0190   -18.6930 hc         1 RTQ       0.039450
     75 HAQ         11.4330    -6.4150   -19.1310 hc         1 RTQ       0.039450
     76 HAS         12.5860    -8.4430   -18.3140 hc         1 RTQ       0.039200
     77 HCA         13.0190    -7.6260   -16.8230 hc         1 RTQ       0.039200
     78 HAR         10.1850    -8.2820   -17.7490 hc         1 RTQ       0.039450
     79 HB9         11.0440    -9.0480   -16.4260 hc         1 RTQ       0.039450
     80 HB7          9.4600    -7.3540   -15.5820 hc         1 RTQ       0.042450
     81 HAP         11.1080    -6.9080   -15.1830 hc         1 RTQ       0.042450
     82 HAM          9.1940    -3.0120   -17.0330 hn         1 RTQ       0.321500
     83 HCI         11.4460    -1.4710   -17.6780 h1         1 RTQ       0.073200
     84 HBT         11.6320    -0.5340   -16.2020 h1         1 RTQ       0.073200
     85 HBP          9.5560    -0.2980   -18.0450 hn         1 RTQ       0.315500
     86 HBN          8.5680     1.9800   -17.0260 h1         1 RTQ       0.068700
     87 HCH          7.4540     0.7090   -17.4980 h1         1 RTQ       0.068700
     88 HBG          6.5190    -0.9230   -16.3710 ha         1 RTQ       0.116000
     89 HBH          2.9650    -0.9910   -14.0000 ha         1 RTQ       0.127000
     90 HBF          3.4590     1.2980   -13.1950 ha         1 RTQ       0.118000
     91 HBD          5.4640     2.4910   -13.9940 ha         1 RTQ       0.129000
@<TRIPOS>BOND
     1     1     2 1   
     2     1    47 1   
     3     1    48 1   
     4     1    49 1   
     5     2     3 1   
     6     3     4 ar  
     7     3     5 ar  
     8     4    10 ar  
     9     4    50 1   
    10     5     6 1   
    11     5     8 ar  
    12     6     7 1   
    13     7    51 1   
    14     7    52 1   
    15     7    53 1   
    16     8     9 ar  
    17     8    54 1   
    18     9    10 ar  
    19     9    55 1   
    20    10    11 1   
    21    11    12 1   
    22    11    56 1   
    23    11    57 1   
    24    12    13 1   
    25    12    58 1   
    26    12    59 1   
    27    13    14 1   
    28    13    43 1   
    29    13    60 1   
    30    14    15 1   
    31    15    16 2   
    32    15    17 1   
    33    17    18 1   
    34    17    22 1   
    35    17    61 1   
    36    18    19 1   
    37    18    62 1   
    38    18    63 1   
    39    19    20 1   
    40    19    64 1   
    41    19    65 1   
    42    20    21 1   
    43    20    66 1   
    44    20    67 1   
    45    21    22 1   
    46    21    68 1   
    47    21    69 1   
    48    22    23 1   
    49    23    24 2   
    50    23    25 1   
    51    25    26 1   
    52    25    32 1   
    53    25    70 1   
    54    26    27 1   
    55    26    31 1   
    56    26    71 1   
    57    27    28 1   
    58    27    72 1   
    59    27    73 1   
    60    28    29 1   
    61    28    74 1   
    62    28    75 1   
    63    29    30 1   
    64    29    76 1   
    65    29    77 1   
    66    30    31 1   
    67    30    78 1   
    68    30    79 1   
    69    31    80 1   
    70    31    81 1   
    71    32    33 1   
    72    32    82 1   
    73    33    34 2   
    74    33    35 1   
    75    35    36 1   
    76    35    83 1   
    77    35    84 1   
    78    36    37 1   
    79    36    85 1   
    80    37    38 2   
    81    37    39 1   
    82    39    40 1   
    83    39    86 1   
    84    39    87 1   
    85    40    41 1   
    86    41    42 ar  
    87    41    46 ar  
    88    42    43 ar  
    89    42    88 1   
    90    43    44 ar  
    91    44    45 ar  
    92    44    89 1   
    93    45    46 ar  
    94    45    90 1   
    95    46    91 1   
@<TRIPOS>SUBSTRUCTURE
     1 RTQ         1 TEMP              0 ****  ****    0 ROOT
