@<TRIPOS>MOLECULE
RTS
   53    56     1     0     0
SMALL
abcg2


@<TRIPOS>ATOM
      1 N1         -20.8840     6.0900    30.8700 n3         1 RTS      -0.769500
      2 N3         -17.4960     2.7640    25.8200 nb         1 RTS      -0.650000
      3 C4         -21.8350     4.3100    29.4670 c6         1 RTS      -0.108700
      4 C5         -23.0060     4.0660    28.5040 c3         1 RTS      -0.088100
      5 C6         -20.4770     3.9340    28.8490 c          1 RTS       0.611100
      6 C7         -19.0820     4.2190    26.8720 ca         1 RTS      -0.090000
      7 C8         -18.6370     2.9770    26.5060 ca         1 RTS       0.345900
      8 C10        -17.1280     5.1340    25.7870 ca         1 RTS      -0.094000
      9 C13        -17.8610     7.7260    26.4830 ca         1 RTS      -0.092000
     10 C15        -18.3170     5.3600    26.5210 ca         1 RTS      -0.018000
     11 C17        -22.3220     2.1350    30.6170 ca         1 RTS      -0.110000
     12 C20        -22.1110     3.2160    33.1540 ca         1 RTS      -0.011000
     13 C21        -21.8980     4.0040    32.0280 ca         1 RTS      -0.251500
     14 S          -21.4670     5.6960    32.3420 sy         1 RTS       1.202600
     15 O2         -20.3810     5.7600    33.3060 o          1 RTS      -0.530000
     16 C2         -19.6810     6.8490    30.6720 c3         1 RTS       0.151800
     17 C1         -19.9680     8.3240    30.4100 c          1 RTS       0.564100
     18 O          -21.0290     8.8370    30.7260 o          1 RTS      -0.584100
     19 N          -18.9640     8.9860    29.8240 ns         1 RTS      -0.510900
     20 C          -19.0210    10.4010    29.5440 c3         1 RTS       0.093300
     21 C19        -22.4270     1.8790    33.0180 ca         1 RTS      -0.112000
     22 C18        -22.5240     1.3520    31.7390 ca         1 RTS       0.166000
     23 CL         -22.9030    -0.3210    31.5400 cl         1 RTS      -0.187000
     24 C16        -22.0140     3.4880    30.7360 ca         1 RTS       0.043700
     25 C3         -21.8080     5.8130    29.7920 c6         1 RTS       0.216800
     26 O1         -19.6270     3.3290    29.4700 o          1 RTS      -0.552100
     27 N2         -20.2910     4.3690    27.5780 ns         1 RTS      -0.172000
     28 C14        -18.6670     6.6860    26.8620 ca         1 RTS      -0.116000
     29 C12        -16.6810     7.5000    25.7440 ca         1 RTS      -0.114000
     30 C11        -16.3210     6.2260    25.4010 ca         1 RTS      -0.073000
     31 C9         -16.7820     3.8000    25.4750 ca         1 RTS       0.364900
     32 H1         -23.9490     4.1810    29.0370 hc         1 RTS       0.050700
     33 H2         -23.0140     4.7890    27.6870 hc         1 RTS       0.050700
     34 H3         -22.9840     3.0720    28.0610 hc         1 RTS       0.050700
     35 H4         -19.2180     2.0980    26.7600 h4         1 RTS       0.033100
     36 H5         -18.1330     8.7390    26.7530 ha         1 RTS       0.115000
     37 H6         -22.4060     1.6830    29.6380 ha         1 RTS       0.129000
     38 H7         -22.0190     3.6350    34.1480 ha         1 RTS       0.136000
     39 H8         -19.1120     6.4150    29.8460 h1         1 RTS       0.085700
     40 H9         -19.0430     6.7610    31.5530 h1         1 RTS       0.085700
     41 H10        -18.1190     8.4890    29.5900 hn         1 RTS       0.318500
     42 H11        -18.0940    10.6930    29.0580 h1         1 RTS       0.042367
     43 H12        -19.8480    10.6420    28.8750 h1         1 RTS       0.042367
     44 H13        -19.1320    10.9900    30.4550 h1         1 RTS       0.042367
     45 H14        -22.5870     1.2610    33.8900 ha         1 RTS       0.137000
     46 H15        -21.5150     6.3940    28.9180 h1         1 RTS       0.073700
     47 H16        -22.8200     6.1460    30.0430 h1         1 RTS       0.073700
     48 H17        -21.0190     4.9040    27.1270 hn         1 RTS       0.158000
     49 H18        -19.5690     6.8840    27.4250 ha         1 RTS       0.113000
     50 H19        -16.0640     8.3390    25.4520 ha         1 RTS       0.120000
     51 H20        -15.4170     6.0390    24.8350 ha         1 RTS       0.122000
     52 H21        -15.8710     3.6120    24.9140 h4         1 RTS       0.024100
     53 O3         -22.6930     6.4100    32.6620 o          1 RTS      -0.530000
@<TRIPOS>BOND
     1     1    14 1   
     2     1    16 1   
     3     1    25 1   
     4     2     7 ar  
     5     2    31 ar  
     6     3     4 1   
     7     3     5 1   
     8     3    24 1   
     9     3    25 1   
    10     4    32 1   
    11     4    33 1   
    12     4    34 1   
    13     5    26 2   
    14     5    27 1   
    15     6     7 ar  
    16     6    10 ar  
    17     6    27 1   
    18     7    35 1   
    19     8    10 ar  
    20     8    30 ar  
    21     8    31 ar  
    22     9    28 ar  
    23     9    29 ar  
    24     9    36 1   
    25    10    28 ar  
    26    11    22 ar  
    27    11    24 ar  
    28    11    37 1   
    29    12    13 ar  
    30    12    21 ar  
    31    12    38 1   
    32    13    14 1   
    33    13    24 ar  
    34    14    15 2   
    35    14    53 2   
    36    16    17 1   
    37    16    39 1   
    38    16    40 1   
    39    17    18 2   
    40    17    19 1   
    41    19    20 1   
    42    19    41 1   
    43    20    42 1   
    44    20    43 1   
    45    20    44 1   
    46    21    22 ar  
    47    21    45 1   
    48    22    23 1   
    49    25    46 1   
    50    25    47 1   
    51    27    48 1   
    52    28    49 1   
    53    29    30 ar  
    54    29    50 1   
    55    30    51 1   
    56    31    52 1   
@<TRIPOS>SUBSTRUCTURE
     1 RTS         1 TEMP              0 ****  ****    0 ROOT
