@<TRIPOS>MOLECULE
RTS
   53    56     1     0     0
SMALL
No Charge or Current Charge


@<TRIPOS>ATOM
      1 N1         -20.4000     6.1890    30.0060 n3         1 RTS      -0.769500
      2 N3         -16.8960     2.1500    26.7200 nb         1 RTS      -0.650000
      3 C4         -21.9030     4.3410    29.1760 c6         1 RTS      -0.108700
      4 C5         -23.2420     4.1890    28.3690 c3         1 RTS      -0.088100
      5 C6         -20.7980     3.5650    28.3870 c          1 RTS       0.611100
      6 C7         -18.5390     3.8880    27.2170 ca         1 RTS      -0.090000
      7 C8         -18.0300     2.5700    27.3280 ca         1 RTS       0.345900
      8 C10        -16.6300     4.3800    25.8020 ca         1 RTS      -0.094000
      9 C13        -17.4840     7.0370    25.4650 ca         1 RTS      -0.092000
     10 C15        -17.8140     4.8170    26.4340 ca         1 RTS      -0.018000
     11 C17        -22.7140     2.4730    30.7500 ca         1 RTS      -0.110000
     12 C20        -21.4860     3.6310    32.9810 ca         1 RTS      -0.011000
     13 C21        -21.3790     4.2560    31.7200 ca         1 RTS      -0.251500
     14 S          -20.4190     5.7760    31.6520 sy         1 RTS       1.202600
     15 O2         -19.0410     5.4380    32.0160 o          1 RTS      -0.530000
     16 C2         -19.8600     7.5640    29.7300 c3         1 RTS       0.151800
     17 C1         -20.7160     8.8030    30.1430 c          1 RTS       0.564100
     18 O          -21.8020     9.0580    29.6370 o          1 RTS      -0.584100
     19 N          -20.1650     9.6190    31.1130 ns         1 RTS      -0.510900
     20 C          -20.8140    10.8220    31.6410 c3         1 RTS       0.093300
     21 C19        -22.2050     2.4370    33.1240 ca         1 RTS      -0.112000
     22 C18        -22.8130     1.8590    32.0060 ca         1 RTS       0.166000
     23 Cl         -23.7010     0.3490    32.1760 cl         1 RTS      -0.187000
     24 C16        -22.0080     3.6890    30.5800 ca         1 RTS       0.043700
     25 C3         -21.6370     5.8720    29.2760 c6         1 RTS       0.216800
     26 O1         -20.8970     2.3580    28.1940 o          1 RTS      -0.552100
     27 N2         -19.7210     4.2970    27.9010 ns         1 RTS      -0.172000
     28 C14        -18.2400     6.1520    26.2540 ca         1 RTS      -0.116000
     29 C12        -16.3030     6.5960    24.8460 ca         1 RTS      -0.114000
     30 C11        -15.8750     5.2690    25.0110 ca         1 RTS      -0.073000
     31 C9         -16.2150     3.0450    25.9710 ca         1 RTS       0.364900
     32 H1         -24.0960     4.5770    28.9380 hc         1 RTS       0.050700
     33 H2         -23.2020     4.7440    27.4230 hc         1 RTS       0.050700
     34 H3         -23.4680     3.1510    28.1000 hc         1 RTS       0.050700
     35 H4         -18.5240     1.8210    27.9440 h4         1 RTS       0.033100
     36 H5         -17.8170     8.0640    25.3300 ha         1 RTS       0.115000
     37 H6         -23.1830     1.9760    29.9090 ha         1 RTS       0.129000
     38 H7         -21.0080     4.0700    33.8560 ha         1 RTS       0.136000
     39 H8         -19.6810     7.6840    28.6550 h1         1 RTS       0.085700
     40 H9         -18.8750     7.6760    30.2020 h1         1 RTS       0.085700
     41 H10        -19.2680     9.3470    31.4990 hn         1 RTS       0.318500
     42 H11        -20.1690    11.2850    32.3990 h1         1 RTS       0.042367
     43 H12        -20.9860    11.5380    30.8260 h1         1 RTS       0.042367
     44 H13        -21.7750    10.5530    32.0990 h1         1 RTS       0.042367
     45 H14        -22.2840     1.9580    34.0970 ha         1 RTS       0.137000
     46 H15        -21.5920     6.2870    28.2580 h1         1 RTS       0.073700
     47 H16        -22.4980     6.3560    29.7630 h1         1 RTS       0.073700
     48 H17        -19.7500     5.2820    28.1330 hn         1 RTS       0.158000
     49 H18        -19.1560     6.5160    26.7100 ha         1 RTS       0.113000
     50 H19        -15.7200     7.2830    24.2350 ha         1 RTS       0.120000
     51 H20        -14.9610     4.9330    24.5250 ha         1 RTS       0.122000
     52 H21        -15.3060     2.6800    25.4940 h4         1 RTS       0.024100
     53 O3         -21.1670     6.8160    32.3620 o          1 RTS      -0.530000
@<TRIPOS>BOND
     1     1    14 1   
     2     1    16 1   
     3     1    25 1   
     4     2     7 ar  
     5     2    31 ar  
     6     3     4 1   
     7     3     5 1   
     8     3    24 1   
     9     3    25 1   
    10     4    32 1   
    11     4    33 1   
    12     4    34 1   
    13     5    26 2   
    14     5    27 1   
    15     6     7 ar  
    16     6    10 ar  
    17     6    27 1   
    18     7    35 1   
    19     8    10 ar  
    20     8    30 ar  
    21     8    31 ar  
    22     9    28 ar  
    23     9    29 ar  
    24     9    36 1   
    25    10    28 ar  
    26    11    22 ar  
    27    11    24 ar  
    28    11    37 1   
    29    12    13 ar  
    30    12    21 ar  
    31    12    38 1   
    32    13    14 1   
    33    13    24 ar  
    34    14    15 2   
    35    14    53 2   
    36    16    17 1   
    37    16    39 1   
    38    16    40 1   
    39    17    18 2   
    40    17    19 1   
    41    19    20 1   
    42    19    41 1   
    43    20    42 1   
    44    20    43 1   
    45    20    44 1   
    46    21    22 ar  
    47    21    45 1   
    48    22    23 1   
    49    25    46 1   
    50    25    47 1   
    51    27    48 1   
    52    28    49 1   
    53    29    30 ar  
    54    29    50 1   
    55    30    51 1   
    56    31    52 1   
@<TRIPOS>SUBSTRUCTURE
     1 RTS         1 TEMP              0 ****  ****    0 ROOT
