@<TRIPOS>MOLECULE
RTT
   95   100     1     0     0
SMALL
No Charge or Current Charge


@<TRIPOS>ATOM
      1 CAX         -0.0380    19.0810   -18.3080 c3         1 RTT       0.145900
      2 OAV         -0.6250    20.2680   -17.7460 os         1 RTT      -0.322100
      3 CAQ          0.1140    21.4090   -17.4770 ca         1 RTT       0.114100
      4 CAP          1.5000    21.4790   -17.7510 ca         1 RTT      -0.170000
      5 CAR         -0.5460    22.5260   -16.9110 ca         1 RTT       0.112100
      6 OAU         -1.9040    22.4340   -16.6490 os         1 RTT      -0.321100
      7 CAW         -2.6540    23.5170   -16.0720 c3         1 RTT       0.145900
      8 CAS          0.1890    23.6990   -16.6270 ca         1 RTT      -0.169000
      9 CAT          1.5640    23.7560   -16.9030 ca         1 RTT      -0.105000
     10 CAO          2.2270    22.6490   -17.4620 ca         1 RTT      -0.083300
     11 CAN          3.7260    22.7100   -17.7370 c3         1 RTT      -0.026100
     12 CAM          4.5400    21.7360   -16.8500 c3         1 RTT      -0.071400
     13 CAK          4.2540    21.8710   -15.3220 c3         1 RTT       0.217600
     14 OAL          5.2380    21.1490   -14.5610 os         1 RTT      -0.435100
     15 C            5.3010    19.7800   -14.5710 c          1 RTT       0.583100
     16 O            4.6940    19.0800   -15.3700 o          1 RTT      -0.484000
     17 CA           6.5000    19.2420   -13.7400 c6         1 RTT       0.048700
     18 CB           6.2450    19.4110   -12.2110 c6         1 RTT      -0.072400
     19 CBD          6.5290    20.8280   -11.6830 c6         1 RTT      -0.077400
     20 CAY          7.9760    21.2010   -12.0230 c6         1 RTT      -0.092400
     21 CAZ          8.2500    21.0970   -13.5380 c6         1 RTT       0.095000
     22 N            7.8430    19.8000   -14.1760 n          1 RTT      -0.391800
     23 CBG          8.3570    19.4460   -15.4510 c          1 RTT       0.601100
     24 OBI          7.7010    18.7350   -16.2040 o          1 RTT      -0.599100
     25 CBH          9.8060    19.9020   -15.8320 c3         1 RTT       0.035700
     26 CBJ         10.5550    18.9300   -16.8160 c6         1 RTT      -0.070700
     27 CBP         11.9370    19.4810   -17.2860 c6         1 RTT      -0.071900
     28 CBR         12.6610    18.4980   -18.2390 c6         1 RTT      -0.072400
     29 CBS         12.8310    17.1050   -17.5910 c6         1 RTT      -0.075400
     30 CBT         11.4660    16.5400   -17.1370 c6         1 RTT      -0.072400
     31 CBQ         10.7460    17.5190   -16.1770 c6         1 RTT      -0.071900
     32 NBK          9.7920    21.3040   -16.3340 ns         1 RTT      -0.486900
     33 CBL         10.6570    22.2950   -15.9120 c          1 RTT       0.637100
     34 OBN         11.4240    22.1320   -14.9720 o          1 RTT      -0.601100
     35 CBM         10.6110    23.5890   -16.7380 cx         1 RTT      -0.057600
     36 CBU         11.4360    23.6020   -18.0110 cx         1 RTT      -0.101400
     37 CBV         11.8850    24.4100   -16.8210 cx         1 RTT      -0.101400
     38 NBO          9.3790    24.3600   -16.7930 ns         1 RTT      -0.497900
     39 CAI          8.6950    24.8610   -15.6970 c          1 RTT       0.563100
     40 OAJ          8.9580    24.5150   -14.5530 o          1 RTT      -0.541100
     41 CAH          7.5980    25.8940   -16.0620 c3         1 RTT       0.080600
     42 OAG          6.6940    26.2120   -14.9740 os         1 RTT      -0.316100
     43 CAD          5.6260    25.4030   -14.6430 ca         1 RTT       0.130100
     44 CAE          5.4960    24.0890   -15.1340 ca         1 RTT      -0.168000
     45 CAF          4.3650    23.3090   -14.8150 ca         1 RTT      -0.075300
     46 CAA          3.3690    23.8520   -13.9800 ca         1 RTT      -0.116000
     47 CAB          3.5000    25.1580   -13.4770 ca         1 RTT      -0.082000
     48 CAC          4.6270    25.9300   -13.8090 ca         1 RTT      -0.127000
     49 H1          -0.8020    18.3030   -18.4330 h1         1 RTT       0.039367
     50 H2           0.3980    19.2900   -19.2930 h1         1 RTT       0.039367
     51 H3           0.7460    18.6850   -17.6500 h1         1 RTT       0.039367
     52 H4           2.0260    20.6340   -18.1840 ha         1 RTT       0.117000
     53 H5          -3.7060    23.2290   -15.9520 h1         1 RTT       0.039033
     54 H6          -2.2590    23.7820   -15.0830 h1         1 RTT       0.039033
     55 H7          -2.6170    24.4050   -16.7170 h1         1 RTT       0.039033
     56 H8          -0.2860    24.5730   -16.1910 ha         1 RTT       0.119000
     57 H9           2.1180    24.6640   -16.6720 ha         1 RTT       0.113000
     58 H10          3.9170    22.4690   -18.7900 hc         1 RTT       0.050700
     59 H11          4.1010    23.7300   -17.5940 hc         1 RTT       0.050700
     60 H12          4.3060    20.7200   -17.1810 hc         1 RTT       0.055700
     61 H13          5.6090    21.8800   -17.0460 hc         1 RTT       0.055700
     62 H14          3.2450    21.4910   -15.1090 h1         1 RTT       0.077700
     63 H15          6.5030    18.1620   -13.9440 h1         1 RTT       0.101700
     64 H16          5.2110    19.1240   -11.9720 hc         1 RTT       0.057700
     65 H17          6.8830    18.6990   -11.6700 hc         1 RTT       0.057700
     66 H18          5.8310    21.5600   -12.1120 hc         1 RTT       0.052700
     67 H19          6.3800    20.8590   -10.5950 hc         1 RTT       0.052700
     68 H20          8.6640    20.5350   -11.4840 hc         1 RTT       0.051200
     69 H21          8.1930    22.2200   -11.6770 hc         1 RTT       0.051200
     70 H22          9.3220    21.2730   -13.6740 h1         1 RTT       0.064700
     71 H23          7.7260    21.9160   -14.0510 h1         1 RTT       0.064700
     72 H24         10.3770    19.8770   -14.8960 h1         1 RTT       0.094700
     73 H25          9.9160    18.8290   -17.7050 hc         1 RTT       0.067700
     74 H26         12.5740    19.6860   -16.4140 hc         1 RTT       0.042950
     75 H27         11.8090    20.4340   -17.8120 hc         1 RTT       0.042950
     76 H28         13.6450    18.9030   -18.5140 hc         1 RTT       0.039200
     77 H29         12.0920    18.4030   -19.1740 hc         1 RTT       0.039200
     78 H30         13.3030    16.4160   -18.3040 hc         1 RTT       0.039200
     79 H31         13.5090    17.1770   -16.7280 hc         1 RTT       0.039200
     80 H32         10.8320    16.3500   -18.0150 hc         1 RTT       0.039200
     81 H33         11.6110    15.5710   -16.6410 hc         1 RTT       0.039200
     82 H34          9.7780    17.0860   -15.8930 hc         1 RTT       0.042950
     83 H35         11.3260    17.6080   -15.2470 hc         1 RTT       0.042950
     84 H36          9.1970    21.5380   -17.1210 hn         1 RTT       0.323500
     85 H37         12.0190    22.7200   -18.2610 hc         1 RTT       0.088450
     86 H38         11.0500    24.1430   -18.8720 hc         1 RTT       0.088450
     87 H39         12.7620    24.0640   -16.2790 hc         1 RTT       0.088450
     88 H40         11.7930    25.4920   -16.8800 hc         1 RTT       0.088450
     89 H41          9.0580    24.6900   -17.6980 hn         1 RTT       0.318500
     90 H42          8.1280    26.8000   -16.3770 h1         1 RTT       0.068700
     91 H43          7.0440    25.5290   -16.9360 h1         1 RTT       0.068700
     92 H44          6.2710    23.6540   -15.7550 ha         1 RTT       0.116000
     93 H45          2.4960    23.2600   -13.7140 ha         1 RTT       0.124000
     94 H46          2.7280    25.5720   -12.8320 ha         1 RTT       0.118000
     95 H47          4.7220    26.9430   -13.4270 ha         1 RTT       0.128000
@<TRIPOS>BOND
     1     1     2 1   
     2     1    49 1   
     3     1    50 1   
     4     1    51 1   
     5     2     3 1   
     6     3     4 ar  
     7     3     5 ar  
     8     4    10 ar  
     9     4    52 1   
    10     5     6 1   
    11     5     8 ar  
    12     6     7 1   
    13     7    53 1   
    14     7    54 1   
    15     7    55 1   
    16     8     9 ar  
    17     8    56 1   
    18     9    10 ar  
    19     9    57 1   
    20    10    11 1   
    21    11    12 1   
    22    11    58 1   
    23    11    59 1   
    24    12    13 1   
    25    12    60 1   
    26    12    61 1   
    27    13    14 1   
    28    13    45 1   
    29    13    62 1   
    30    14    15 1   
    31    15    16 2   
    32    15    17 1   
    33    17    18 1   
    34    17    22 1   
    35    17    63 1   
    36    18    19 1   
    37    18    64 1   
    38    18    65 1   
    39    19    20 1   
    40    19    66 1   
    41    19    67 1   
    42    20    21 1   
    43    20    68 1   
    44    20    69 1   
    45    21    22 1   
    46    21    70 1   
    47    21    71 1   
    48    22    23 1   
    49    23    24 2   
    50    23    25 1   
    51    25    26 1   
    52    25    32 1   
    53    25    72 1   
    54    26    27 1   
    55    26    31 1   
    56    26    73 1   
    57    27    28 1   
    58    27    74 1   
    59    27    75 1   
    60    28    29 1   
    61    28    76 1   
    62    28    77 1   
    63    29    30 1   
    64    29    78 1   
    65    29    79 1   
    66    30    31 1   
    67    30    80 1   
    68    30    81 1   
    69    31    82 1   
    70    31    83 1   
    71    32    33 1   
    72    32    84 1   
    73    33    34 2   
    74    33    35 1   
    75    35    36 1   
    76    35    37 1   
    77    35    38 1   
    78    36    37 1   
    79    36    85 1   
    80    36    86 1   
    81    37    87 1   
    82    37    88 1   
    83    38    39 1   
    84    38    89 1   
    85    39    40 2   
    86    39    41 1   
    87    41    42 1   
    88    41    90 1   
    89    41    91 1   
    90    42    43 1   
    91    43    44 ar  
    92    43    48 ar  
    93    44    45 ar  
    94    44    92 1   
    95    45    46 ar  
    96    46    47 ar  
    97    46    93 1   
    98    47    48 ar  
    99    47    94 1   
   100    48    95 1   
@<TRIPOS>SUBSTRUCTURE
     1 RTT         1 TEMP              0 ****  ****    0 ROOT
