@<TRIPOS>MOLECULE
RTT
   95   100     1     0     0
SMALL
abcg2


@<TRIPOS>ATOM
      1 CAX          0.8260    19.0220   -19.5050 c3         1 RTT       0.145900
      2 OAV         -0.0190    19.5500   -18.5050 os         1 RTT      -0.322100
      3 CAQ          0.3640    20.6810   -17.8810 ca         1 RTT       0.114100
      4 CAP          1.5450    21.3590   -18.1250 ca         1 RTT      -0.170000
      5 CAR         -0.5370    21.1800   -16.9160 ca         1 RTT       0.112100
      6 OAU         -1.6600    20.4570   -16.7380 os         1 RTT      -0.321100
      7 CAW         -2.6020    20.9170   -15.7930 c3         1 RTT       0.145900
      8 CAS         -0.2200    22.3440   -16.2400 ca         1 RTT      -0.169000
      9 CAT          0.9760    23.0170   -16.5010 ca         1 RTT      -0.105000
     10 CAO          1.8700    22.5350   -17.4370 ca         1 RTT      -0.083300
     11 CAN          3.1890    23.2050   -17.7140 c3         1 RTT      -0.026100
     12 CAM          4.3690    22.4650   -17.0780 c3         1 RTT      -0.071400
     13 CAK          4.4200    22.6450   -15.5660 c3         1 RTT       0.217600
     14 OAL          5.4070    21.7150   -15.0810 os         1 RTT      -0.435100
     15 C            5.2700    21.2270   -13.8570 c          1 RTT       0.583100
     16 O            4.4310    21.5900   -13.0750 o          1 RTT      -0.484000
     17 CA           6.2410    20.0770   -13.6080 c6         1 RTT       0.048700
     18 CB           6.2310    19.6030   -12.1580 c6         1 RTT      -0.072400
     19 CBD          6.9670    20.5530   -11.2270 c6         1 RTT      -0.077400
     20 CAY          8.3770    20.7780   -11.7470 c6         1 RTT      -0.092400
     21 CAZ          8.3600    21.2640   -13.1880 c6         1 RTT       0.095000
     22 N            7.5920    20.3780   -14.0540 n          1 RTT      -0.391800
     23 CBG          7.9860    19.9430   -15.2770 c          1 RTT       0.601100
     24 OBI          7.2120    19.3920   -16.0430 o          1 RTT      -0.599100
     25 CBH          9.4680    20.1150   -15.6600 c3         1 RTT       0.035700
     26 CBJ          9.8640    19.1290   -16.7730 c6         1 RTT      -0.070700
     27 CBP         11.2330    19.4420   -17.3820 c6         1 RTT      -0.071900
     28 CBR         11.5930    18.4360   -18.4710 c6         1 RTT      -0.072400
     29 CBS         11.5800    17.0070   -17.9430 c6         1 RTT      -0.075400
     30 CBT         10.2370    16.6780   -17.3030 c6         1 RTT      -0.072400
     31 CBQ          9.8670    17.6970   -16.2300 c6         1 RTT      -0.071900
     32 NBK          9.7260    21.5020   -15.9960 ns         1 RTT      -0.486900
     33 CBL         10.8590    22.1280   -15.6150 c          1 RTT       0.637100
     34 OBN         11.6680    21.6360   -14.8420 o          1 RTT      -0.601100
     35 CBM         11.1070    23.4720   -16.2360 cx         1 RTT      -0.057600
     36 CBU         12.3900    23.5840   -17.0230 cx         1 RTT      -0.101400
     37 CBV         12.2680    24.2670   -15.7080 cx         1 RTT      -0.101400
     38 NBO          9.9810    24.1900   -16.7300 ns         1 RTT      -0.497900
     39 CAI          9.2070    24.9100   -15.8840 c          1 RTT       0.563100
     40 OAJ          9.2690    24.8060   -14.6770 o          1 RTT      -0.541100
     41 CAH          8.2880    25.9080   -16.5740 c3         1 RTT       0.080600
     42 OAG          7.4300    26.5440   -15.6730 os         1 RTT      -0.316100
     43 CAD          6.3160    25.9040   -15.2510 ca         1 RTT       0.130100
     44 CAE          5.9860    24.5990   -15.5900 ca         1 RTT      -0.168000
     45 CAF          4.7840    24.0460   -15.1480 ca         1 RTT      -0.075300
     46 CAA          3.9300    24.7910   -14.3510 ca         1 RTT      -0.116000
     47 CAB          4.2730    26.0930   -14.0020 ca         1 RTT      -0.082000
     48 CAC          5.4550    26.6530   -14.4470 ca         1 RTT      -0.127000
     49 H1           0.3370    18.1270   -19.8820 h1         1 RTT       0.039367
     50 H2           0.9660    19.7220   -20.3330 h1         1 RTT       0.039367
     51 H3           1.8080    18.7470   -19.1100 h1         1 RTT       0.039367
     52 H4           2.2430    20.9830   -18.8640 ha         1 RTT       0.117000
     53 H5          -3.4230    20.2040   -15.8010 h1         1 RTT       0.039033
     54 H6          -2.1850    20.9600   -14.7830 h1         1 RTT       0.039033
     55 H7          -2.9940    21.9050   -16.0510 h1         1 RTT       0.039033
     56 H8          -0.8940    22.7520   -15.4980 ha         1 RTT       0.119000
     57 H9           1.1960    23.9280   -15.9580 ha         1 RTT       0.113000
     58 H10          3.3570    23.2440   -18.7920 hc         1 RTT       0.050700
     59 H11          3.1630    24.2420   -17.3710 hc         1 RTT       0.050700
     60 H12          4.2850    21.3990   -17.3030 hc         1 RTT       0.055700
     61 H13          5.3030    22.8070   -17.5310 hc         1 RTT       0.055700
     62 H14          3.4480    22.3850   -15.1390 h1         1 RTT       0.077700
     63 H15          5.8690    19.2620   -14.2350 h1         1 RTT       0.101700
     64 H16          5.2010    19.4460   -11.8370 hc         1 RTT       0.057700
     65 H17          6.7170    18.6250   -12.1330 hc         1 RTT       0.057700
     66 H18          6.4390    21.5090   -11.1650 hc         1 RTT       0.052700
     67 H19          6.9920    20.1420   -10.2170 hc         1 RTT       0.052700
     68 H20          8.9480    19.8460   -11.6930 hc         1 RTT       0.051200
     69 H21          8.9070    21.5150   -11.1420 hc         1 RTT       0.051200
     70 H22          9.3800    21.3440   -13.5420 h1         1 RTT       0.064700
     71 H23          7.9310    22.2730   -13.2400 h1         1 RTT       0.064700
     72 H24         10.0810    19.8820   -14.7860 h1         1 RTT       0.094700
     73 H25          9.1230    19.1970   -17.5770 hc         1 RTT       0.067700
     74 H26         12.0000    19.4210   -16.6010 hc         1 RTT       0.042950
     75 H27         11.2420    20.4480   -17.8070 hc         1 RTT       0.042950
     76 H28         12.5730    18.6790   -18.8880 hc         1 RTT       0.039200
     77 H29         10.8750    18.5240   -19.2930 hc         1 RTT       0.039200
     78 H30         11.8010    16.3010   -18.7480 hc         1 RTT       0.039200
     79 H31         12.3740    16.8880   -17.1980 hc         1 RTT       0.039200
     80 H32          9.4590    16.6670   -18.0750 hc         1 RTT       0.039200
     81 H33         10.2560    15.6750   -16.8700 hc         1 RTT       0.039200
     82 H34          8.8970    17.4370   -15.8030 hc         1 RTT       0.042950
     83 H35         10.5940    17.6340   -15.4100 hc         1 RTT       0.042950
     84 H36          9.1560    21.9310   -16.7100 hn         1 RTT       0.323500
     85 H37         13.0040    22.6960   -17.0940 hc         1 RTT       0.088450
     86 H38         12.3560    24.1830   -17.9250 hc         1 RTT       0.088450
     87 H39         12.8110    23.8690   -14.8630 hc         1 RTT       0.088450
     88 H40         12.1470    25.3420   -15.7080 hc         1 RTT       0.088450
     89 H41          9.8900    24.3230   -17.7270 hn         1 RTT       0.318500
     90 H42          8.9140    26.6940   -17.0040 h1         1 RTT       0.068700
     91 H43          7.7540    25.4410   -17.4100 h1         1 RTT       0.068700
     92 H44          6.6430    23.9990   -16.2060 ha         1 RTT       0.116000
     93 H45          3.0000    24.3590   -14.0030 ha         1 RTT       0.124000
     94 H46          3.6080    26.6780   -13.3800 ha         1 RTT       0.118000
     95 H47          5.7180    27.6700   -14.1850 ha         1 RTT       0.128000
@<TRIPOS>BOND
     1     1     2 1   
     2     1    49 1   
     3     1    50 1   
     4     1    51 1   
     5     2     3 1   
     6     3     4 ar  
     7     3     5 ar  
     8     4    10 ar  
     9     4    52 1   
    10     5     6 1   
    11     5     8 ar  
    12     6     7 1   
    13     7    53 1   
    14     7    54 1   
    15     7    55 1   
    16     8     9 ar  
    17     8    56 1   
    18     9    10 ar  
    19     9    57 1   
    20    10    11 1   
    21    11    12 1   
    22    11    58 1   
    23    11    59 1   
    24    12    13 1   
    25    12    60 1   
    26    12    61 1   
    27    13    14 1   
    28    13    45 1   
    29    13    62 1   
    30    14    15 1   
    31    15    16 2   
    32    15    17 1   
    33    17    18 1   
    34    17    22 1   
    35    17    63 1   
    36    18    19 1   
    37    18    64 1   
    38    18    65 1   
    39    19    20 1   
    40    19    66 1   
    41    19    67 1   
    42    20    21 1   
    43    20    68 1   
    44    20    69 1   
    45    21    22 1   
    46    21    70 1   
    47    21    71 1   
    48    22    23 1   
    49    23    24 2   
    50    23    25 1   
    51    25    26 1   
    52    25    32 1   
    53    25    72 1   
    54    26    27 1   
    55    26    31 1   
    56    26    73 1   
    57    27    28 1   
    58    27    74 1   
    59    27    75 1   
    60    28    29 1   
    61    28    76 1   
    62    28    77 1   
    63    29    30 1   
    64    29    78 1   
    65    29    79 1   
    66    30    31 1   
    67    30    80 1   
    68    30    81 1   
    69    31    82 1   
    70    31    83 1   
    71    32    33 1   
    72    32    84 1   
    73    33    34 2   
    74    33    35 1   
    75    35    36 1   
    76    35    37 1   
    77    35    38 1   
    78    36    37 1   
    79    36    85 1   
    80    36    86 1   
    81    37    87 1   
    82    37    88 1   
    83    38    39 1   
    84    38    89 1   
    85    39    40 2   
    86    39    41 1   
    87    41    42 1   
    88    41    90 1   
    89    41    91 1   
    90    42    43 1   
    91    43    44 ar  
    92    43    48 ar  
    93    44    45 ar  
    94    44    92 1   
    95    45    46 ar  
    96    46    47 ar  
    97    46    93 1   
    98    47    48 ar  
    99    47    94 1   
   100    48    95 1   
@<TRIPOS>SUBSTRUCTURE
     1 RTT         1 TEMP              0 ****  ****    0 ROOT
