@<TRIPOS>MOLECULE
RTU
   40    43     1     0     0
SMALL
No Charge or Current Charge


@<TRIPOS>ATOM
      1 C02        -43.8770   -31.0640     2.8520 c          1 RTU       0.717000
      2 C03        -44.0710   -30.1170     1.6340 c5         1 RTU      -0.198700
      3 C04        -43.2620   -28.7690     1.8050 c5         1 RTU      -0.023100
      4 C05        -44.0630   -27.8640     0.8980 ca         1 RTU      -0.155300
      5 C06        -43.6620   -26.6340     0.3460 ca         1 RTU       0.122100
      6 C08        -44.5550   -25.9300    -0.4810 ca         1 RTU      -0.153000
      7 C09        -45.8370   -26.4520    -0.7470 ca         1 RTU      -0.105000
      8 C10        -46.2280   -27.6800    -0.1820 ca         1 RTU      -0.114000
      9 C11        -45.3250   -28.3740     0.6420 ca         1 RTU      -0.055300
     10 C12        -45.5740   -29.6930     1.3380 c5         1 RTU       0.166000
     11 C15        -48.1980   -29.4450     4.0980 ca         1 RTU      -0.158600
     12 C16        -49.6110   -29.4530     4.2350 ca         1 RTU      -0.013000
     13 C17        -50.1520   -29.3790     5.5240 ca         1 RTU      -0.120800
     14 C18        -49.3760   -29.3000     6.6410 ca         1 RTU      -0.033200
     15 C20        -51.5480   -29.2800     7.3800 cc         1 RTU      -0.186100
     16 C21        -51.5130   -29.3660     5.9950 cd         1 RTU      -0.225200
     17 C22        -47.9820   -29.2880     6.5570 ca         1 RTU      -0.152000
     18 C23        -47.3910   -29.3600     5.2750 ca         1 RTU      -0.040000
     19 N13        -46.2220   -29.5580     2.6400 ns         1 RTU      -0.482900
     20 N19        -50.1890   -29.2400     7.7620 na         1 RTU      -0.239700
     21 O01        -44.1130   -30.6600     3.9840 o          1 RTU      -0.724000
     22 O07        -42.4260   -26.1200     0.6030 oh         1 RTU      -0.560100
     23 O24        -48.3000   -29.5540     1.7070 o          1 RTU      -0.667100
     24 O25        -43.4440   -32.1870     2.6480 o          1 RTU      -0.724000
     25 H031       -43.7060   -30.6450     0.7460 hc         1 RTU       0.052700
     26 H042       -42.2160   -28.8840     1.5000 hc         1 RTU       0.051200
     27 H041       -43.2730   -28.4000     2.8370 hc         1 RTU       0.051200
     28 H081       -44.2570   -24.9790    -0.9150 ha         1 RTU       0.109000
     29 H091       -46.5260   -25.9040    -1.3860 ha         1 RTU       0.098000
     30 H101       -47.2180   -28.0870    -0.3790 ha         1 RTU       0.133000
     31 H121       -46.0770   -30.4210     0.6850 h1         1 RTU       0.067700
     32 H161       -50.2660   -29.5140     3.3680 ha         1 RTU       0.133000
     33 H201       -52.3760   -29.2460     8.0840 h4         1 RTU       0.200000
     34 H211       -52.3950   -29.4160     5.3590 ha         1 RTU       0.198000
     35 H221       -47.3670   -29.2230     7.4510 ha         1 RTU       0.110000
     36 H231       -46.3060   -29.3450     5.2170 ha         1 RTU       0.136000
     37 H131       -45.7020   -29.6260     3.5090 hn         1 RTU       0.377500
     38 H191       -49.8490   -29.1770     8.7170 hn         1 RTU       0.341000
     39 H071       -41.9620   -26.7360     1.2080 ho         1 RTU       0.463000
     40 C14        -47.5970   -29.5230     2.7100 c          1 RTU       0.605700
@<TRIPOS>BOND
     1     1     2 1   
     2     1    21 1   
     3     1    24 1   
     4     2     3 1   
     5     2    10 1   
     6     2    25 1   
     7     3     4 1   
     8     3    26 1   
     9     3    27 1   
    10     4     5 ar  
    11     4     9 ar  
    12     5     6 ar  
    13     5    22 1   
    14     6     7 ar  
    15     6    28 1   
    16     7     8 ar  
    17     7    29 1   
    18     8     9 ar  
    19     8    30 1   
    20     9    10 1   
    21    10    19 1   
    22    10    31 1   
    23    11    12 ar  
    24    11    18 ar  
    25    11    40 1   
    26    12    13 ar  
    27    12    32 1   
    28    13    14 ar  
    29    13    16 1   
    30    14    17 ar  
    31    14    20 1   
    32    15    16 2   
    33    15    20 1   
    34    15    33 1   
    35    16    34 1   
    36    17    18 ar  
    37    17    35 1   
    38    18    36 1   
    39    19    37 1   
    40    19    40 1   
    41    20    38 1   
    42    22    39 1   
    43    23    40 2   
@<TRIPOS>SUBSTRUCTURE
     1 RTU         1 TEMP              0 ****  ****    0 ROOT
