@<TRIPOS>MOLECULE
RTU
   40    43     1     0     0
SMALL
abcg2


@<TRIPOS>ATOM
      1 C02        -44.0220   -31.1260     2.8610 c          1 RTU       0.717000
      2 C03        -44.1680   -30.1930     1.6430 c5         1 RTU      -0.198700
      3 C04        -43.2530   -28.9470     1.7060 c5         1 RTU      -0.023100
      4 C05        -44.0000   -27.9350     0.8780 ca         1 RTU      -0.155300
      5 C06        -43.5390   -26.7380     0.3390 ca         1 RTU       0.122100
      6 C08        -44.4100   -25.9390    -0.4020 ca         1 RTU      -0.153000
      7 C09        -45.7300   -26.3380    -0.5920 ca         1 RTU      -0.105000
      8 C10        -46.2050   -27.5320    -0.0510 ca         1 RTU      -0.114000
      9 C11        -45.3250   -28.3190     0.6810 ca         1 RTU      -0.055300
     10 C12        -45.6010   -29.6320     1.3930 c5         1 RTU       0.166000
     11 C15        -48.2480   -29.2810     4.0920 ca         1 RTU      -0.158600
     12 C16        -49.5850   -29.6280     4.2460 ca         1 RTU      -0.013000
     13 C17        -50.1710   -29.5780     5.5130 ca         1 RTU      -0.120800
     14 C18        -49.3820   -29.1570     6.6200 ca         1 RTU      -0.033200
     15 C20        -51.4460   -29.6190     7.3700 cc         1 RTU      -0.186100
     16 C21        -51.4800   -29.8670     6.0240 cd         1 RTU      -0.225200
     17 C22        -48.0430   -28.7940     6.4760 ca         1 RTU      -0.152000
     18 C23        -47.4900   -28.8640     5.2100 ca         1 RTU      -0.040000
     19 N13        -46.3170   -29.4300     2.6480 ns         1 RTU      -0.482900
     20 N19        -50.1850   -29.1920     7.7300 na         1 RTU      -0.239700
     21 O01        -44.2440   -30.6130     3.9970 o          1 RTU      -0.724000
     22 O07        -42.2510   -26.3030     0.4990 oh         1 RTU      -0.560100
     23 O24        -48.3770   -29.3780     1.7080 o          1 RTU      -0.667100
     24 O25        -43.6920   -32.3150     2.6470 o          1 RTU      -0.724000
     25 H031       -43.9050   -30.7600     0.7510 hc         1 RTU       0.052700
     26 H042       -42.2530   -29.1680     1.3250 hc         1 RTU       0.051200
     27 H041       -43.1420   -28.6010     2.7370 hc         1 RTU       0.051200
     28 H081       -44.0430   -25.0130    -0.8260 ha         1 RTU       0.109000
     29 H091       -46.3920   -25.7080    -1.1730 ha         1 RTU       0.098000
     30 H101       -47.2310   -27.8390    -0.1940 ha         1 RTU       0.133000
     31 H121       -46.1870   -30.3120     0.7730 h1         1 RTU       0.067700
     32 H161       -50.1550   -29.9400     3.3810 ha         1 RTU       0.133000
     33 H201       -52.2200   -29.7120     8.1140 h4         1 RTU       0.200000
     34 H211       -52.3340   -30.2130     5.4640 ha         1 RTU       0.198000
     35 H221       -47.4580   -28.4610     7.3230 ha         1 RTU       0.110000
     36 H231       -46.4580   -28.5660     5.0820 ha         1 RTU       0.136000
     37 H131       -45.7610   -29.6290     3.4790 hn         1 RTU       0.377500
     38 H191       -49.9030   -28.9420     8.6630 hn         1 RTU       0.341000
     39 H071       -41.7460   -26.9480     1.0130 ho         1 RTU       0.463000
     40 C14        -47.6590   -29.3640     2.7180 c          1 RTU       0.605700
@<TRIPOS>BOND
     1     1     2 1   
     2     1    21 1   
     3     1    24 1   
     4     2     3 1   
     5     2    10 1   
     6     2    25 1   
     7     3     4 1   
     8     3    26 1   
     9     3    27 1   
    10     4     5 ar  
    11     4     9 ar  
    12     5     6 ar  
    13     5    22 1   
    14     6     7 ar  
    15     6    28 1   
    16     7     8 ar  
    17     7    29 1   
    18     8     9 ar  
    19     8    30 1   
    20     9    10 1   
    21    10    19 1   
    22    10    31 1   
    23    11    12 ar  
    24    11    18 ar  
    25    11    40 1   
    26    12    13 ar  
    27    12    32 1   
    28    13    14 ar  
    29    13    16 1   
    30    14    17 ar  
    31    14    20 1   
    32    15    16 2   
    33    15    20 1   
    34    15    33 1   
    35    16    34 1   
    36    17    18 ar  
    37    17    35 1   
    38    18    36 1   
    39    19    37 1   
    40    19    40 1   
    41    20    38 1   
    42    22    39 1   
    43    23    40 2   
@<TRIPOS>SUBSTRUCTURE
     1 RTU         1 TEMP              0 ****  ****    0 ROOT
