@<TRIPOS>MOLECULE
RTV
   29    29     1     0     0
SMALL
No Charge or Current Charge


@<TRIPOS>ATOM
      1 O4          -5.0310    -0.8550    36.4060 oh         1 RTV      -0.717000
      2 C4          -4.4540    -1.1220    35.1050 c6         1 RTV       0.137300
      3 C3          -4.6040    -2.6450    34.7780 c6         1 RTV       0.170300
      4 O3          -3.8710    -2.9950    33.5880 oh         1 RTV      -0.658000
      5 C2          -6.1200    -3.0530    34.6460 c6         1 RTV       0.047700
      6 N2          -6.2950    -4.2740    33.8170 ns         1 RTV      -0.523900
      7 C7          -6.0690    -5.5640    34.2430 c          1 RTV       0.595100
      8 O7          -5.6400    -5.8180    35.3580 o          1 RTV      -0.595100
      9 C8          -6.3910    -6.6440    33.2200 c3         1 RTV      -0.182100
     10 C5          -5.1640    -0.2490    34.0020 c6         1 RTV       0.142300
     11 C6          -4.1490     0.3460    32.9690 c3         1 RTV       0.167600
     12 O6          -4.7700     1.1810    31.9710 oh         1 RTV      -0.709000
     13 O5          -6.1650    -1.0080    33.2620 os         1 RTV      -0.421000
     14 C1          -6.9750    -1.8720    34.0820 c6         1 RTV       0.143600
     15 H4          -3.3810    -0.8780    35.1250 h1         1 RTV       0.054700
     16 H3          -4.1860    -3.2130    35.6220 h1         1 RTV       0.063700
     17 HO3         -4.4220    -3.6770    33.1460 ho         1 RTV       0.454000
     18 H2          -6.5020    -3.2740    35.6540 h1         1 RTV       0.094700
     19 HN2         -6.6920    -4.1740    32.8880 hn         1 RTV       0.317500
     20 H82         -6.1930    -7.6540    33.5950 hc         1 RTV       0.061700
     21 H83         -7.4320    -6.5290    32.8970 hc         1 RTV       0.061700
     22 H81         -5.8370    -6.4390    32.2970 hc         1 RTV       0.061700
     23 H5          -5.6690     0.5970    34.4900 h1         1 RTV       0.039700
     24 H61         -3.4000     0.9260    33.5250 h1         1 RTV       0.032200
     25 H62         -3.6190    -0.4870    32.4870 h1         1 RTV       0.032200
     26 HO6         -4.0650     1.4320    31.3280 ho         1 RTV       0.503000
     27 H11         -7.8190    -2.2540    33.4900 h1         1 RTV       0.057200
     28 H12         -7.3940    -1.2830    34.9110 h1         1 RTV       0.057200
     29 HO4         -4.6850     0.0180    36.7070 ho         1 RTV       0.510000
@<TRIPOS>BOND
     1     1     2 1   
     2     1    29 1   
     3     2     3 1   
     4     2    10 1   
     5     2    15 1   
     6     3     4 1   
     7     3     5 1   
     8     3    16 1   
     9     4    17 1   
    10     5     6 1   
    11     5    14 1   
    12     5    18 1   
    13     6     7 1   
    14     6    19 1   
    15     7     8 2   
    16     7     9 1   
    17     9    20 1   
    18     9    21 1   
    19     9    22 1   
    20    10    11 1   
    21    10    13 1   
    22    10    23 1   
    23    11    12 1   
    24    11    24 1   
    25    11    25 1   
    26    12    26 1   
    27    13    14 1   
    28    14    27 1   
    29    14    28 1   
@<TRIPOS>SUBSTRUCTURE
     1 RTV         1 TEMP              0 ****  ****    0 ROOT
