@<TRIPOS>MOLECULE
RTV
   29    29     1     0     0
SMALL
bcc


@<TRIPOS>ATOM
      1 O4          -4.9550    -1.0540    36.3080 oh         1 RTV      -0.594800
      2 C4          -4.4200    -1.1810    35.0090 c6         1 RTV       0.114100
      3 C3          -4.5510    -2.6560    34.6530 c6         1 RTV       0.147100
      4 O3          -3.8800    -2.8520    33.4370 oh         1 RTV      -0.595800
      5 C2          -6.0470    -3.0450    34.5820 c6         1 RTV       0.047700
      6 N2          -6.2290    -4.2500    33.7970 ns         1 RTV      -0.590900
      7 C7          -6.2000    -5.4940    34.3200 c          1 RTV       0.662100
      8 O7          -5.9450    -5.7080    35.4960 o          1 RTV      -0.595100
      9 C8          -6.4980    -6.5950    33.3320 c3         1 RTV      -0.182100
     10 C5          -5.1580    -0.2970    33.9760 c6         1 RTV       0.119100
     11 C6          -4.1910     0.3640    33.0170 c3         1 RTV       0.144400
     12 O6          -4.9090     1.2280    32.1690 oh         1 RTV      -0.586800
     13 O5          -6.1040    -1.0240    33.2220 os         1 RTV      -0.374600
     14 C1          -6.8770    -1.8830    34.0220 c6         1 RTV       0.120400
     15 H4          -3.3530    -0.9130    35.0120 h1         1 RTV       0.054700
     16 H3          -4.0840    -3.2520    35.4500 h1         1 RTV       0.063700
     17 HO3         -4.0380    -3.7560    33.1480 ho         1 RTV       0.415000
     18 H2          -6.3900    -3.2600    35.5940 h1         1 RTV       0.094700
     19 HN2         -6.4730    -4.1480    32.8240 hn         1 RTV       0.317500
     20 H82         -6.5360    -7.5570    33.8370 hc         1 RTV       0.061700
     21 H83         -7.4490    -6.4240    32.8270 hc         1 RTV       0.061700
     22 H81         -5.7250    -6.6380    32.5630 hc         1 RTV       0.061700
     23 H5          -5.6780     0.4980    34.5360 h1         1 RTV       0.039700
     24 H61         -3.4510     0.9090    33.6180 h1         1 RTV       0.032200
     25 H62         -3.6460    -0.4030    32.4550 h1         1 RTV       0.032200
     26 HO6         -4.2830     1.6490    31.5730 ho         1 RTV       0.404000
     27 H11         -7.6950    -2.2550    33.4020 h1         1 RTV       0.057200
     28 H12         -7.3310    -1.3310    34.8540 h1         1 RTV       0.057200
     29 HO4         -4.8980    -0.1320    36.5770 ho         1 RTV       0.411000
@<TRIPOS>BOND
     1     1     2 1   
     2     1    29 1   
     3     2     3 1   
     4     2    10 1   
     5     2    15 1   
     6     3     4 1   
     7     3     5 1   
     8     3    16 1   
     9     4    17 1   
    10     5     6 1   
    11     5    14 1   
    12     5    18 1   
    13     6     7 1   
    14     6    19 1   
    15     7     8 2   
    16     7     9 1   
    17     9    20 1   
    18     9    21 1   
    19     9    22 1   
    20    10    11 1   
    21    10    13 1   
    22    10    23 1   
    23    11    12 1   
    24    11    24 1   
    25    11    25 1   
    26    12    26 1   
    27    13    14 1   
    28    14    27 1   
    29    14    28 1   
@<TRIPOS>SUBSTRUCTURE
     1 RTV         1 TEMP              0 ****  ****    0 ROOT
