@<TRIPOS>MOLECULE
RTW
   46    49     1     0     0
SMALL
No Charge or Current Charge


@<TRIPOS>ATOM
      1 C01          7.9110   -10.3370    -3.3750 c3         1 RTW       0.145900
      2 C03          8.5180    -7.9530    -3.1300 ca         1 RTW       0.161100
      3 C04          7.7360    -7.5780    -4.2450 ca         1 RTW      -0.205000
      4 C05          7.6850    -6.2350    -4.6550 ca         1 RTW      -0.057000
      5 C06          8.4240    -5.2650    -3.9640 ca         1 RTW      -0.152000
      6 C07          9.2020    -5.6310    -2.8540 ca         1 RTW      -0.034000
      7 C08          9.2310    -6.9690    -2.4100 ca         1 RTW      -0.172500
      8 C09         10.0660    -7.3210    -1.2620 cc         1 RTW       0.480000
      9 C11         11.7720    -7.4140     0.0790 cd         1 RTW       0.179500
     10 C12         10.7240    -8.0250     0.6810 cc         1 RTW       0.196000
     11 C14         11.9870    -8.4450     2.5930 cc         1 RTW       0.882100
     12 C17         13.0350    -7.3220     0.7690 cs         1 RTW       0.440300
     13 C20          8.2050    -8.3210     0.2280 c6         1 RTW       0.081300
     14 C21          8.0520    -9.8330     0.5560 c6         1 RTW      -0.087400
     15 C22          6.5700   -10.1870     0.8350 c6         1 RTW      -0.076400
     16 C23          5.9910    -9.3070     1.9710 c6         1 RTW      -0.079400
     17 C24          6.1500    -7.7980     1.6540 c6         1 RTW      -0.076400
     18 C25          7.6290    -7.4360     1.3680 c6         1 RTW      -0.087400
     19 N10         11.3490    -6.9590    -1.1640 nd         1 RTW      -0.566000
     20 N13         10.7820    -8.5160     1.9840 na         1 RTW      -0.905200
     21 N15         12.0430    -8.9520     3.7830 nv         1 RTW      -1.057200
     22 N16         13.0310    -7.8930     2.0530 nd         1 RTW      -0.712100
     23 N19          9.6070    -7.9500    -0.1020 na         1 RTW      -0.172500
     24 O02          8.6330    -9.2710    -2.7350 os         1 RTW      -0.338100
     25 S18         14.4070    -6.5990     0.1330 s          1 RTW      -0.490400
     26 H1           8.1410   -11.2950    -2.8910 h1         1 RTW       0.043033
     27 H2           6.8290   -10.1720    -3.3040 h1         1 RTW       0.043033
     28 H3           8.1890   -10.4170    -4.4340 h1         1 RTW       0.043033
     29 H4           7.1720    -8.3110    -4.8120 ha         1 RTW       0.120000
     30 H5           7.0840    -5.9510    -5.5160 ha         1 RTW       0.114000
     31 H6           8.3970    -4.2270    -4.2890 ha         1 RTW       0.123000
     32 H7           9.7730    -4.8680    -2.3260 ha         1 RTW       0.131000
     33 H8           7.5880    -8.1210    -0.6580 h1         1 RTW       0.084700
     34 H9           8.4250   -10.4400    -0.2800 hc         1 RTW       0.049700
     35 H10          8.6570   -10.1070     1.4290 hc         1 RTW       0.049700
     36 H11          5.9780   -10.0500    -0.0800 hc         1 RTW       0.047950
     37 H12          6.4850   -11.2490     1.1050 hc         1 RTW       0.047950
     38 H13          4.9290    -9.5450     2.1210 hc         1 RTW       0.042700
     39 H14          6.4990    -9.5410     2.9170 hc         1 RTW       0.042700
     40 H15          5.7750    -7.1990     2.4950 hc         1 RTW       0.047950
     41 H16          5.5310    -7.5360     0.7850 hc         1 RTW       0.047950
     42 H17          8.2170    -7.5570     2.2870 hc         1 RTW       0.049700
     43 H18          7.7020    -6.3760     1.0890 hc         1 RTW       0.049700
     44 H19          9.9870    -8.8880     2.4770 hn         1 RTW       0.504000
     45 H20         12.9960    -9.0060     4.1150 hn         1 RTW       0.508500
     46 H21         11.5180    -9.8050     3.9020 hn         1 RTW       0.508500
@<TRIPOS>BOND
     1     1    24 1   
     2     1    26 1   
     3     1    27 1   
     4     1    28 1   
     5     2     3 ar  
     6     2     7 ar  
     7     2    24 1   
     8     3     4 ar  
     9     3    29 1   
    10     4     5 ar  
    11     4    30 1   
    12     5     6 ar  
    13     5    31 1   
    14     6     7 ar  
    15     6    32 1   
    16     7     8 1   
    17     8    19 2   
    18     8    23 1   
    19     9    10 2   
    20     9    12 1   
    21     9    19 1   
    22    10    20 1   
    23    10    23 1   
    24    11    20 1   
    25    11    21 1   
    26    11    22 2   
    27    12    22 1   
    28    12    25 2   
    29    13    14 1   
    30    13    18 1   
    31    13    23 1   
    32    13    33 1   
    33    14    15 1   
    34    14    34 1   
    35    14    35 1   
    36    15    16 1   
    37    15    36 1   
    38    15    37 1   
    39    16    17 1   
    40    16    38 1   
    41    16    39 1   
    42    17    18 1   
    43    17    40 1   
    44    17    41 1   
    45    18    42 1   
    46    18    43 1   
    47    20    44 1   
    48    21    45 1   
    49    21    46 1   
@<TRIPOS>SUBSTRUCTURE
     1 RTW         1 TEMP              0 ****  ****    0 ROOT
