@<TRIPOS>MOLECULE
RTW
   46    49     1     0     0
SMALL
abcg2


@<TRIPOS>ATOM
      1 C01          8.3150   -10.3530    -3.4940 c3         1 RTW       0.145900
      2 C03          8.5930    -8.0210    -3.1400 ca         1 RTW       0.161100
      3 C04          7.7670    -7.6810    -4.2070 ca         1 RTW      -0.205000
      4 C05          7.5220    -6.3420    -4.4880 ca         1 RTW      -0.057000
      5 C06          8.0900    -5.3350    -3.7230 ca         1 RTW      -0.152000
      6 C07          8.9080    -5.6780    -2.6550 ca         1 RTW      -0.034000
      7 C08          9.1580    -7.0090    -2.3490 ca         1 RTW      -0.172500
      8 C09         10.0430    -7.3490    -1.2250 cc         1 RTW       0.480000
      9 C11         11.7430    -7.5470     0.0360 cd         1 RTW       0.179500
     10 C12         10.6690    -8.0560     0.7280 cc         1 RTW       0.196000
     11 C14         12.0580    -8.5610     2.5120 cc         1 RTW       0.882100
     12 C17         13.0340    -7.5540     0.6420 cs         1 RTW       0.440300
     13 C20          8.1870    -8.2540     0.2530 c6         1 RTW       0.081300
     14 C21          7.9720    -9.7380     0.5390 c6         1 RTW      -0.087400
     15 C22          6.4880   -10.0120     0.7690 c6         1 RTW      -0.076400
     16 C23          5.9310    -9.1380     1.8870 c6         1 RTW      -0.079400
     17 C24          6.1660    -7.6590     1.5990 c6         1 RTW      -0.076400
     18 C25          7.6460    -7.3640     1.3700 c6         1 RTW      -0.087400
     19 N10         11.3190    -7.1060    -1.1870 nd         1 RTW      -0.566000
     20 N13         10.8020    -8.5600     1.9810 na         1 RTW      -0.905200
     21 N15         12.1970    -9.0550     3.7450 nv         1 RTW      -1.057200
     22 N16         13.1110    -8.0900     1.8840 nd         1 RTW      -0.712100
     23 N19          9.5800    -7.9400    -0.0600 na         1 RTW      -0.172500
     24 O02          8.9100    -9.2780    -2.7920 os         1 RTW      -0.338100
     25 S18         14.3960    -6.9430    -0.1200 s          1 RTW      -0.490400
     26 H1           8.6870   -11.2640    -3.0320 h1         1 RTW       0.043033
     27 H2           7.2250   -10.3350    -3.4150 h1         1 RTW       0.043033
     28 H3           8.5950   -10.3540    -4.5510 h1         1 RTW       0.043033
     29 H4           7.3140    -8.4410    -4.8290 ha         1 RTW       0.120000
     30 H5           6.8780    -6.0920    -5.3210 ha         1 RTW       0.114000
     31 H6           7.8960    -4.2960    -3.9490 ha         1 RTW       0.123000
     32 H7           9.3530    -4.9060    -2.0420 ha         1 RTW       0.131000
     33 H8           7.6290    -8.0080    -0.6530 h1         1 RTW       0.084700
     34 H9           8.3520   -10.3310    -0.2940 hc         1 RTW       0.049700
     35 H10          8.5260   -10.0500     1.4300 hc         1 RTW       0.049700
     36 H11          5.9370    -9.8160    -0.1570 hc         1 RTW       0.047950
     37 H12          6.3450   -11.0690     1.0000 hc         1 RTW       0.047950
     38 H13          4.8640    -9.3300     2.0200 hc         1 RTW       0.042700
     39 H14          6.4170    -9.4040     2.8320 hc         1 RTW       0.042700
     40 H15          5.7940    -7.0440     2.4200 hc         1 RTW       0.047950
     41 H16          5.6000    -7.3660     0.7080 hc         1 RTW       0.047950
     42 H17          8.1940    -7.5370     2.3020 hc         1 RTW       0.049700
     43 H18          7.7930    -6.3150     1.1040 hc         1 RTW       0.049700
     44 H19         10.0180    -8.9090     2.5140 hn         1 RTW       0.504000
     45 H20         13.1270    -9.1340     4.1210 hn         1 RTW       0.508500
     46 H21         11.4610    -9.5530     4.2170 hn         1 RTW       0.508500
@<TRIPOS>BOND
     1     1    24 1   
     2     1    26 1   
     3     1    27 1   
     4     1    28 1   
     5     2     3 ar  
     6     2     7 ar  
     7     2    24 1   
     8     3     4 ar  
     9     3    29 1   
    10     4     5 ar  
    11     4    30 1   
    12     5     6 ar  
    13     5    31 1   
    14     6     7 ar  
    15     6    32 1   
    16     7     8 1   
    17     8    19 2   
    18     8    23 1   
    19     9    10 2   
    20     9    12 1   
    21     9    19 1   
    22    10    20 1   
    23    10    23 1   
    24    11    20 1   
    25    11    21 1   
    26    11    22 2   
    27    12    22 1   
    28    12    25 2   
    29    13    14 1   
    30    13    18 1   
    31    13    23 1   
    32    13    33 1   
    33    14    15 1   
    34    14    34 1   
    35    14    35 1   
    36    15    16 1   
    37    15    36 1   
    38    15    37 1   
    39    16    17 1   
    40    16    38 1   
    41    16    39 1   
    42    17    18 1   
    43    17    40 1   
    44    17    41 1   
    45    18    42 1   
    46    18    43 1   
    47    20    44 1   
    48    21    45 1   
    49    21    46 1   
@<TRIPOS>SUBSTRUCTURE
     1 RTW         1 TEMP              0 ****  ****    0 ROOT
