@<TRIPOS>MOLECULE
RTX
   49    51     1     0     0
SMALL
No Charge or Current Charge


@<TRIPOS>ATOM
      1 C39          6.7010     1.4260    -1.5740 c3         1 RTX      -0.089600
      2 C36          5.3880     1.3270    -0.7690 c3         1 RTX       0.170800
      3 N33          5.1710     0.0350    -0.0540 n3         1 RTX      -0.730600
      4 C37          6.2470    -0.2580     0.9390 c3         1 RTX       0.170800
      5 C45          6.2070    -1.6700     1.5620 c3         1 RTX      -0.089600
      6 C30          3.8040    -0.0750     0.5360 c3         1 RTX       0.173800
      7 C27          2.6330    -0.0010    -0.4750 c3         1 RTX      -0.076400
      8 C24          1.2700    -0.3540     0.1610 c3         1 RTX      -0.111400
      9 C1           0.0990    -0.2760    -0.8490 c3         1 RTX       0.079600
     10 N2          -1.2220    -0.6050    -0.2560 na         1 RTX      -0.090000
     11 C11         -2.0760     0.4260     0.1880 ca         1 RTX      -0.015000
     12 C12         -1.5870     1.6930     0.5890 ca         1 RTX      -0.148000
     13 C13         -2.4730     2.7000     1.0070 ca         1 RTX       0.131000
     14 Cl1         -1.8430     4.2670     1.4970 cl         1 RTX      -0.204000
     15 C14         -3.8550     2.4650     1.0340 ca         1 RTX      -0.112000
     16 C15         -4.3560     1.2110     0.6480 ca         1 RTX      -0.096000
     17 C10         -3.4720     0.2000     0.2330 ca         1 RTX       0.121000
     18 O9          -3.9860    -1.0260    -0.1120 os         1 RTX      -0.313000
     19 C8          -3.1510    -2.0960    -0.3230 ca         1 RTX       0.119000
     20 C3          -1.7500    -1.9070    -0.3770 ca         1 RTX      -0.029000
     21 C4          -0.9250    -3.0440    -0.5570 ca         1 RTX      -0.143000
     22 C5          -1.4900    -4.3240    -0.6940 ca         1 RTX      -0.099000
     23 C6          -2.8830    -4.4910    -0.6510 ca         1 RTX      -0.116000
     24 C7          -3.7140    -3.3750    -0.4630 ca         1 RTX      -0.099000
     25 H1           7.5730     1.4970    -0.9140 hc         1 RTX       0.036533
     26 H2           6.8210     0.5560    -2.2290 hc         1 RTX       0.036533
     27 H3           6.6880     2.3260    -2.2000 hc         1 RTX       0.036533
     28 H4           5.3480     2.1630    -0.0580 h1         1 RTX       0.028700
     29 H5           4.5820     1.4890    -1.4960 h1         1 RTX       0.028700
     30 H7           7.2290    -0.1720     0.4580 h1         1 RTX       0.028700
     31 H8           6.2240     0.4840     1.7490 h1         1 RTX       0.028700
     32 H9           6.1320    -2.4360     0.7820 hc         1 RTX       0.036533
     33 H10          7.1260    -1.8520     2.1320 hc         1 RTX       0.036533
     34 H11          5.3630    -1.7820     2.2520 hc         1 RTX       0.036533
     35 H12          3.7010    -1.0390     1.0480 h1         1 RTX       0.030700
     36 H13          3.6600     0.7050     1.2960 h1         1 RTX       0.030700
     37 H14          2.5660     1.0080    -0.8960 hc         1 RTX       0.047200
     38 H15          2.8320    -0.6910    -1.3040 hc         1 RTX       0.047200
     39 H16          1.3210    -1.3630     0.5860 hc         1 RTX       0.050200
     40 H17          1.0790     0.3260     1.0000 hc         1 RTX       0.050200
     41 H18          0.0570     0.7320    -1.2810 h1         1 RTX       0.058700
     42 H19          0.2950    -0.9580    -1.6870 h1         1 RTX       0.058700
     43 H20         -0.5250     1.9170     0.5840 ha         1 RTX       0.133000
     44 H21         -4.5350     3.2490     1.3580 ha         1 RTX       0.135000
     45 H22         -5.4250     1.0170     0.6750 ha         1 RTX       0.135000
     46 H23          0.1570    -2.9560    -0.5950 ha         1 RTX       0.119000
     47 H24         -0.8460    -5.1900    -0.8340 ha         1 RTX       0.116000
     48 H25         -3.3180    -5.4830    -0.7570 ha         1 RTX       0.120000
     49 H26         -4.7930    -3.4990    -0.4190 ha         1 RTX       0.131000
@<TRIPOS>BOND
     1     1     2 1   
     2     1    25 1   
     3     1    26 1   
     4     1    27 1   
     5     2     3 1   
     6     2    28 1   
     7     2    29 1   
     8     3     4 1   
     9     3     6 1   
    10     4     5 1   
    11     4    30 1   
    12     4    31 1   
    13     5    32 1   
    14     5    33 1   
    15     5    34 1   
    16     6     7 1   
    17     6    35 1   
    18     6    36 1   
    19     7     8 1   
    20     7    37 1   
    21     7    38 1   
    22     8     9 1   
    23     8    39 1   
    24     8    40 1   
    25     9    10 1   
    26     9    41 1   
    27     9    42 1   
    28    10    11 1   
    29    10    20 1   
    30    11    12 ar  
    31    11    17 ar  
    32    12    13 ar  
    33    12    43 1   
    34    13    14 1   
    35    13    15 ar  
    36    15    16 ar  
    37    15    44 1   
    38    16    17 ar  
    39    16    45 1   
    40    17    18 1   
    41    18    19 1   
    42    19    20 ar  
    43    19    24 ar  
    44    20    21 ar  
    45    21    22 ar  
    46    21    46 1   
    47    22    23 ar  
    48    22    47 1   
    49    23    24 ar  
    50    23    48 1   
    51    24    49 1   
@<TRIPOS>SUBSTRUCTURE
     1 RTX         1 TEMP              0 ****  ****    0 ROOT
