@<TRIPOS>MOLECULE
RTX
   49    51     1     0     0
SMALL
bcc


@<TRIPOS>ATOM
      1 C39          6.2020     1.9540    -1.0510 c3         1 RTX      -0.089600
      2 C36          5.1540     1.5790    -0.0150 c3         1 RTX       0.170800
      3 N33          5.0060     0.1390     0.1470 n3         1 RTX      -0.730600
      4 C37          6.0560    -0.4130     0.9900 c3         1 RTX       0.170800
      5 C45          6.2720    -1.9040     0.7830 c3         1 RTX      -0.089600
      6 C30          3.6780    -0.2190     0.6150 c3         1 RTX       0.173800
      7 C27          2.6350    -0.2030    -0.4950 c3         1 RTX      -0.076400
      8 C24          1.2370    -0.4980     0.0350 c3         1 RTX      -0.111400
      9 C1           0.1990    -0.4850    -1.0840 c3         1 RTX       0.050300
     10 N2          -1.1690    -0.6530    -0.6410 na         1 RTX      -0.162100
     11 C11         -1.9010     0.4360    -0.1950 ca         1 RTX      -0.029600
     12 C12         -1.3570     1.7080    -0.0370 ca         1 RTX      -0.166000
     13 C13         -2.1620     2.7620     0.3790 ca         1 RTX       0.039400
     14 CL1         -1.4440     4.3330     0.5430 cl         1 RTX      -0.112400
     15 C14         -3.4990     2.5880     0.6670 ca         1 RTX      -0.130000
     16 C15         -4.0400     1.3130     0.5290 ca         1 RTX      -0.179300
     17 C10         -3.2610     0.2630     0.0980 ca         1 RTX       0.296000
     18 O9          -3.8610    -0.9490    -0.0770 os         1 RTX      -0.401800
     19 C8          -3.0540    -2.0520    -0.1280 ca         1 RTX       0.294000
     20 C3          -1.6930    -1.9260    -0.4270 ca         1 RTX      -0.043600
     21 C4          -0.9360    -3.0910    -0.5070 ca         1 RTX      -0.161000
     22 C5          -1.5220    -4.3380    -0.3100 ca         1 RTX      -0.117000
     23 C6          -2.8680    -4.4410    -0.0100 ca         1 RTX      -0.134000
     24 C7          -3.6350    -3.2840     0.0890 ca         1 RTX      -0.182300
     25 H1           7.1960     1.5890    -0.7870 hc         1 RTX       0.036533
     26 H2           5.9420     1.5420    -2.0260 hc         1 RTX       0.036533
     27 H3           6.2700     3.0380    -1.1470 hc         1 RTX       0.036533
     28 H4           5.3830     2.0680     0.9460 h1         1 RTX       0.028700
     29 H5           4.1960     1.9920    -0.3380 h1         1 RTX       0.028700
     30 H7           6.9900     0.0970     0.7490 h1         1 RTX       0.028700
     31 H8           5.8680    -0.2060     2.0570 h1         1 RTX       0.028700
     32 H9           6.5210    -2.1150    -0.2580 hc         1 RTX       0.036533
     33 H10          7.0950    -2.2550     1.4060 hc         1 RTX       0.036533
     34 H11          5.3940    -2.4960     1.0450 hc         1 RTX       0.036533
     35 H12          3.7110    -1.2290     1.0280 h1         1 RTX       0.030700
     36 H13          3.3510     0.4320     1.4440 h1         1 RTX       0.030700
     37 H14          2.6260     0.7680    -1.0000 hc         1 RTX       0.047200
     38 H15          2.9130    -0.9410    -1.2530 hc         1 RTX       0.047200
     39 H16          1.2290    -1.4680     0.5410 hc         1 RTX       0.050200
     40 H17          0.9740     0.2410     0.7970 hc         1 RTX       0.050200
     41 H18          0.2590     0.4500    -1.6450 h1         1 RTX       0.058700
     42 H19          0.4160    -1.2670    -1.8130 h1         1 RTX       0.058700
     43 H20         -0.3110     1.8900    -0.2360 ha         1 RTX       0.151000
     44 H21         -4.1170     3.4140     0.9900 ha         1 RTX       0.153000
     45 H22         -5.0880     1.1430     0.7420 ha         1 RTX       0.153000
     46 H23          0.1210    -3.0400    -0.7260 ha         1 RTX       0.137000
     47 H24         -0.9080    -5.2240    -0.3900 ha         1 RTX       0.134000
     48 H25         -3.3270    -5.4070     0.1500 ha         1 RTX       0.138000
     49 H26         -4.6920    -3.3370     0.3170 ha         1 RTX       0.149000
@<TRIPOS>BOND
     1     1     2 1   
     2     1    25 1   
     3     1    26 1   
     4     1    27 1   
     5     2     3 1   
     6     2    28 1   
     7     2    29 1   
     8     3     4 1   
     9     3     6 1   
    10     4     5 1   
    11     4    30 1   
    12     4    31 1   
    13     5    32 1   
    14     5    33 1   
    15     5    34 1   
    16     6     7 1   
    17     6    35 1   
    18     6    36 1   
    19     7     8 1   
    20     7    37 1   
    21     7    38 1   
    22     8     9 1   
    23     8    39 1   
    24     8    40 1   
    25     9    10 1   
    26     9    41 1   
    27     9    42 1   
    28    10    11 1   
    29    10    20 1   
    30    11    12 ar  
    31    11    17 ar  
    32    12    13 ar  
    33    12    43 1   
    34    13    14 1   
    35    13    15 ar  
    36    15    16 ar  
    37    15    44 1   
    38    16    17 ar  
    39    16    45 1   
    40    17    18 1   
    41    18    19 1   
    42    19    20 ar  
    43    19    24 ar  
    44    20    21 ar  
    45    21    22 ar  
    46    21    46 1   
    47    22    23 ar  
    48    22    47 1   
    49    23    24 ar  
    50    23    48 1   
    51    24    49 1   
@<TRIPOS>SUBSTRUCTURE
     1 RTX         1 TEMP              0 ****  ****    0 ROOT
