@<TRIPOS>MOLECULE
RTY
   39    39     1     0     0
SMALL
No Charge or Current Charge


@<TRIPOS>ATOM
      1 C           -4.0030    -0.2930    -0.2450 c3         1 RTY       0.122300
      2 N           -2.3440    -0.8150     1.5880 n8         1 RTY      -1.012200
      3 O           -4.6350    -1.5720    -0.0220 oh         1 RTY      -0.637000
      4 C1           4.8040     0.2910    -0.3150 c3         1 RTY       0.151600
      5 O1           9.3670     0.1950    -0.6810 o          1 RTY      -0.737500
      6 C2           8.6720     0.7770     0.1380 c          1 RTY       0.720000
      7 C3           7.2360     1.1530    -0.2670 c3         1 RTY      -0.208400
      8 C4           6.2680    -0.0110     0.0640 c3         1 RTY      -0.058400
      9 C6          -4.8000     0.8040     0.5030 c3         1 RTY       0.047600
     10 CA          -2.4960    -0.3470     0.1820 c3         1 RTY       0.143500
     11 CB          -1.6490    -1.2230    -0.7850 c3         1 RTY      -0.005100
     12 CG          -0.1410    -1.1100    -0.5620 ca         1 RTY      -0.133300
     13 CZ           2.6520    -0.9020    -0.1740 ca         1 RTY       0.169100
     14 CD1          0.5450     0.0600    -0.9450 ca         1 RTY      -0.064000
     15 CD2          0.5790    -2.1750     0.0120 ca         1 RTY      -0.064000
     16 CE1          1.9340     0.1670    -0.7520 ca         1 RTY      -0.182000
     17 CE2          1.9680    -2.0680     0.2040 ca         1 RTY      -0.182000
     18 H           -4.0340    -0.0370    -1.3150 h1         1 RTY       0.093700
     19 HN          -2.7770    -0.1340     2.2200 hn         1 RTY       0.399500
     20 HNA         -2.9450    -1.6420     1.6900 hn         1 RTY       0.399500
     21 HO          -5.5900    -1.4600    -0.2280 ho         1 RTY       0.434000
     22 H1           4.4610     1.1800     0.2310 h1         1 RTY       0.023200
     23 H1A          4.7380     0.4900    -1.3920 h1         1 RTY       0.023200
     24 O2           9.0340     1.0280     1.2770 o          1 RTY      -0.737500
     25 H3           6.8830     2.0110     0.3190 hc         1 RTY       0.016200
     26 H3A          7.1680     1.3010    -1.3520 hc         1 RTY       0.016200
     27 H4           6.3200    -0.2320     1.1370 hc         1 RTY       0.056200
     28 H4A          6.5930    -0.9150    -0.4670 hc         1 RTY       0.056200
     29 Br1         -6.7080     0.8750    -0.0820 br         1 RTY      -0.260000
     30 H6          -4.8080     0.6230     1.5850 h1         1 RTY       0.073200
     31 H6A         -4.3720     1.7950     0.3040 h1         1 RTY       0.073200
     32 HA          -2.0950     0.6760     0.1200 h1         1 RTY       0.071700
     33 HB          -1.9710    -2.2690    -0.7040 hc         1 RTY       0.046200
     34 HBA         -1.8740    -0.9240    -1.8170 hc         1 RTY       0.046200
     35 HD1          0.0010     0.8870    -1.3950 ha         1 RTY       0.098500
     36 HD2          0.0640    -3.0850     0.3120 ha         1 RTY       0.098500
     37 HE1          2.4330     1.0810    -1.0580 ha         1 RTY       0.123000
     38 HE2          2.5170    -2.8940     0.6490 ha         1 RTY       0.123000
     39 OH           4.0140    -0.8560     0.0390 os         1 RTY      -0.343100
@<TRIPOS>BOND
     1     1     3 1   
     2     1     9 1   
     3     1    10 1   
     4     1    18 1   
     5     2    10 1   
     6     2    19 1   
     7     2    20 1   
     8     3    21 1   
     9     4     8 1   
    10     4    22 1   
    11     4    23 1   
    12     4    39 1   
    13     5     6 1   
    14     6     7 1   
    15     6    24 1   
    16     7     8 1   
    17     7    25 1   
    18     7    26 1   
    19     8    27 1   
    20     8    28 1   
    21     9    29 1   
    22     9    30 1   
    23     9    31 1   
    24    10    11 1   
    25    10    32 1   
    26    11    12 1   
    27    11    33 1   
    28    11    34 1   
    29    12    14 ar  
    30    12    15 ar  
    31    13    16 ar  
    32    13    17 ar  
    33    13    39 1   
    34    14    16 ar  
    35    14    35 1   
    36    15    17 ar  
    37    15    36 1   
    38    16    37 1   
    39    17    38 1   
@<TRIPOS>SUBSTRUCTURE
     1 RTY         1 TEMP              0 ****  ****    0 ROOT
