@<TRIPOS>MOLECULE
RTY
   39    39     1     0     0
SMALL
abcg2


@<TRIPOS>ATOM
      1 C           -3.9240    -0.1430    -0.3400 c3         1 RTY       0.122300
      2 N           -2.3360    -1.0510     1.4150 n8         1 RTY      -1.012200
      3 O           -4.5870    -1.3590    -0.5780 oh         1 RTY      -0.637000
      4 C1           4.7210     0.1730    -0.2460 c3         1 RTY       0.151600
      5 O1           8.9080    -0.2060     0.6180 o          1 RTY      -0.737500
      6 C2           8.5400     0.8970     0.1680 c          1 RTY       0.720000
      7 C3           7.0540     1.0610    -0.2040 c3         1 RTY      -0.208400
      8 C4           6.1520    -0.1060     0.1610 c3         1 RTY      -0.058400
      9 C6          -4.6840     0.7500     0.6250 c3         1 RTY       0.047600
     10 CA          -2.4740    -0.3450     0.1570 c3         1 RTY       0.143500
     11 CB          -1.6510    -1.0590    -0.9220 c3         1 RTY      -0.005100
     12 CG          -0.1750    -1.0160    -0.6530 ca         1 RTY      -0.133300
     13 CZ           2.5940    -0.8940    -0.1410 ca         1 RTY       0.169100
     14 CD1          0.5910     0.0660    -1.0660 ca         1 RTY      -0.064000
     15 CD2          0.4780    -2.0410     0.0310 ca         1 RTY      -0.064000
     16 CE1          1.9570     0.1420    -0.8190 ca         1 RTY      -0.182000
     17 CE2          1.8380    -1.9900     0.2830 ca         1 RTY      -0.182000
     18 H           -3.8680     0.3650    -1.3080 h1         1 RTY       0.093700
     19 HN          -2.8080    -0.5840     2.1770 hn         1 RTY       0.399500
     20 HNA         -2.6950    -1.9950     1.3590 hn         1 RTY       0.399500
     21 HO          -4.6660    -1.8380     0.2550 ho         1 RTY       0.434000
     22 H1           4.3610     1.0920     0.2330 h1         1 RTY       0.023200
     23 H1A          4.6600     0.3260    -1.3310 h1         1 RTY       0.023200
     24 O2           9.2610     1.8980    -0.0240 o          1 RTY      -0.737500
     25 H3           6.6830     1.9800     0.2640 hc         1 RTY       0.016200
     26 H3A          6.9960     1.2500    -1.2830 hc         1 RTY       0.016200
     27 H4           6.1950    -0.2900     1.2380 hc         1 RTY       0.056200
     28 H4A          6.5000    -1.0180    -0.3300 hc         1 RTY       0.056200
     29 BR1         -6.4930     1.1440    -0.0300 br         1 RTY      -0.260000
     30 H6          -4.8130     0.2870     1.6050 h1         1 RTY       0.073200
     31 H6A         -4.1810     1.7070     0.7530 h1         1 RTY       0.073200
     32 HA          -2.0480     0.6560     0.2940 h1         1 RTY       0.071700
     33 HB          -1.9890    -2.0960    -1.0040 hc         1 RTY       0.046200
     34 HBA         -1.8600    -0.5910    -1.8870 hc         1 RTY       0.046200
     35 HD1          0.1160     0.8820    -1.6000 ha         1 RTY       0.098500
     36 HD2         -0.0840    -2.9020     0.3690 ha         1 RTY       0.098500
     37 HE1          2.5020     1.0080    -1.1700 ha         1 RTY       0.123000
     38 HE2          2.3260    -2.8010     0.8090 ha         1 RTY       0.123000
     39 OH           3.9120    -0.9280     0.1400 os         1 RTY      -0.343100
@<TRIPOS>BOND
     1     1     3 1   
     2     1     9 1   
     3     1    10 1   
     4     1    18 1   
     5     2    10 1   
     6     2    19 1   
     7     2    20 1   
     8     3    21 1   
     9     4     8 1   
    10     4    22 1   
    11     4    23 1   
    12     4    39 1   
    13     5     6 1   
    14     6     7 1   
    15     6    24 1   
    16     7     8 1   
    17     7    25 1   
    18     7    26 1   
    19     8    27 1   
    20     8    28 1   
    21     9    29 1   
    22     9    30 1   
    23     9    31 1   
    24    10    11 1   
    25    10    32 1   
    26    11    12 1   
    27    11    33 1   
    28    11    34 1   
    29    12    14 ar  
    30    12    15 ar  
    31    13    16 ar  
    32    13    17 ar  
    33    13    39 1   
    34    14    16 ar  
    35    14    35 1   
    36    15    17 ar  
    37    15    36 1   
    38    16    37 1   
    39    17    38 1   
@<TRIPOS>SUBSTRUCTURE
     1 RTY         1 TEMP              0 ****  ****    0 ROOT
