@<TRIPOS>MOLECULE
RTZ
   51    54     1     0     0
SMALL
abcg2


@<TRIPOS>ATOM
      1 CAA          3.3860    -1.7190     2.0160 c3         1 RTZ       0.149100
      2 CAB         -1.5360     5.7800     1.1440 c3         1 RTZ       0.019900
      3 CAC         -0.9860    -3.9840     0.3000 ca         1 RTZ      -0.077000
      4 CAD         -2.3580    -4.1560     0.3630 ca         1 RTZ      -0.136000
      5 CAE          4.9840    -0.8300    -1.8480 c6         1 RTZ      -0.074400
      6 CAF          5.8960    -0.9030    -0.6340 c6         1 RTZ      -0.076400
      7 CAG          3.6430    -0.2410    -1.4400 c6         1 RTZ      -0.078400
      8 CAH         -0.4380    -2.7510    -0.0280 ca         1 RTZ      -0.162000
      9 CAI         -3.1840    -3.0800     0.0690 ca         1 RTZ      -0.056000
     10 CAJ         -2.7570     3.1160     0.4020 ca         1 RTZ      -0.152000
     11 CAK         -3.4530     1.9520     0.1040 ca         1 RTZ      -0.042000
     12 CAL          1.6830    -0.3170     0.1070 c3         1 RTZ      -0.114400
     13 CAM          5.2020    -1.6470     0.4920 c6         1 RTZ       0.167800
     14 CAN          0.6800    -0.3410    -1.0590 c3         1 RTZ       0.069600
     15 CAO         -0.6980     1.9330    -0.0150 ca         1 RTZ      -0.155000
     16 CAP          3.0060    -0.9880    -0.2670 c6         1 RTZ       0.187500
     17 CAQ         -1.3710     3.1080     0.3270 ca         1 RTZ      -0.054000
     18 CAR         -1.2540    -1.6590    -0.3350 ca         1 RTZ       0.028000
     19 CAS         -1.3890     0.7660    -0.3290 ca         1 RTZ       0.043000
     20 CAT         -2.6400    -1.8580    -0.2990 ca         1 RTZ      -0.131000
     21 CAU         -2.7900     0.8010    -0.2830 ca         1 RTZ      -0.141000
     22 NAV          3.9330    -1.0350     0.8610 n3         1 RTZ      -0.714600
     23 NAW         -0.7250    -0.4100    -0.6860 na         1 RTZ      -0.091000
     24 SAY         -3.7050    -0.5800    -0.8700 ss         1 RTZ       0.028000
     25 HAA          4.1520    -1.7910     2.7890 h1         1 RTZ       0.031033
     26 HAAA         2.5510    -1.1730     2.4510 h1         1 RTZ       0.031033
     27 HAAB         3.0450    -2.7430     1.7930 h1         1 RTZ       0.031033
     28 HAB         -2.2240     6.0250     0.3370 h1         1 RTZ       0.066700
     29 HABA        -2.0920     5.4920     2.0350 h1         1 RTZ       0.066700
     30 HABB        -0.9430     6.6630     1.3730 h1         1 RTZ       0.066700
     31 HAC         -0.3210    -4.8090     0.5210 ha         1 RTZ       0.113000
     32 HAD         -2.7860    -5.1120     0.6330 ha         1 RTZ       0.118000
     33 HAE          5.4350    -0.2320    -2.6430 hc         1 RTZ       0.040200
     34 HAEA         4.8350    -1.8360    -2.2550 hc         1 RTZ       0.040200
     35 HAF          6.8340    -1.4060    -0.8750 hc         1 RTZ       0.047700
     36 HAFA         6.1510     0.1070    -0.2980 hc         1 RTZ       0.047700
     37 HAG          3.7780     0.8060    -1.1480 hc         1 RTZ       0.046700
     38 HAGA         2.9600    -0.2470    -2.2920 hc         1 RTZ       0.046700
     39 HAH          0.6390    -2.6640    -0.0470 ha         1 RTZ       0.119000
     40 HAI         -4.2600    -3.1930     0.1020 ha         1 RTZ       0.124000
     41 HAJ         -3.3090     4.0020     0.6790 ha         1 RTZ       0.118000
     42 HAK         -4.5350     1.9540     0.1490 ha         1 RTZ       0.124000
     43 HAL          1.8960     0.7090     0.4210 hc         1 RTZ       0.060200
     44 HALA         1.2240    -0.8020     0.9680 hc         1 RTZ       0.060200
     45 HAM          5.0640    -2.7030     0.1930 h1         1 RTZ       0.029700
     46 HAMA         5.8430    -1.6580     1.3760 h1         1 RTZ       0.029700
     47 HAN          0.8030     0.5320    -1.7010 h1         1 RTZ       0.060700
     48 HANA         0.8750    -1.2030    -1.7030 h1         1 RTZ       0.060700
     49 HAO          0.3830     1.9460    -0.0330 ha         1 RTZ       0.129000
     50 HAP          2.7760    -2.0210    -0.6040 h1         1 RTZ       0.015700
     51 SAX         -0.3580     4.5090     0.6560 ss         1 RTZ      -0.159000
@<TRIPOS>BOND
     1     1    22 1   
     2     1    25 1   
     3     1    26 1   
     4     1    27 1   
     5     2    28 1   
     6     2    29 1   
     7     2    30 1   
     8     2    51 1   
     9     3     4 ar  
    10     3     8 ar  
    11     3    31 1   
    12     4     9 ar  
    13     4    32 1   
    14     5     6 1   
    15     5     7 1   
    16     5    33 1   
    17     5    34 1   
    18     6    13 1   
    19     6    35 1   
    20     6    36 1   
    21     7    16 1   
    22     7    37 1   
    23     7    38 1   
    24     8    18 ar  
    25     8    39 1   
    26     9    20 ar  
    27     9    40 1   
    28    10    11 ar  
    29    10    17 ar  
    30    10    41 1   
    31    11    21 ar  
    32    11    42 1   
    33    12    14 1   
    34    12    16 1   
    35    12    43 1   
    36    12    44 1   
    37    13    22 1   
    38    13    45 1   
    39    13    46 1   
    40    14    23 1   
    41    14    47 1   
    42    14    48 1   
    43    15    17 ar  
    44    15    19 ar  
    45    15    49 1   
    46    16    22 1   
    47    16    50 1   
    48    17    51 1   
    49    18    20 ar  
    50    18    23 1   
    51    19    21 ar  
    52    19    23 1   
    53    20    24 1   
    54    21    24 1   
@<TRIPOS>SUBSTRUCTURE
     1 RTZ         1 TEMP              0 ****  ****    0 ROOT
