@<TRIPOS>MOLECULE
RTZ
   51    54     1     0     0
SMALL
No Charge or Current Charge


@<TRIPOS>ATOM
      1 CAA          4.1100    -1.7300     1.9620 c3         1 RTZ       0.149100
      2 CAB         -1.6880     5.8040     1.3470 c3         1 RTZ       0.019900
      3 CAC         -1.8700    -3.9590     1.1140 ca         1 RTZ      -0.077000
      4 CAD         -3.0650    -4.0760     0.3870 ca         1 RTZ      -0.136000
      5 CAE          4.8810    -0.6030    -2.1950 c6         1 RTZ      -0.074400
      6 CAF          5.9970    -0.5140    -1.1390 c6         1 RTZ      -0.076400
      7 CAG          3.5250    -0.2260    -1.5620 c6         1 RTZ      -0.078400
      8 CAH         -1.0850    -2.7990     0.9940 ca         1 RTZ      -0.162000
      9 CAI         -3.4800    -3.0320    -0.4570 ca         1 RTZ      -0.056000
     10 CAJ         -2.5640     3.1740    -0.0840 ca         1 RTZ      -0.152000
     11 CAK         -3.1180     2.0970    -0.7970 ca         1 RTZ      -0.042000
     12 CAL          1.8300    -0.6550     0.3190 c3         1 RTZ      -0.114400
     13 CAM          5.6430    -1.3770     0.0920 c6         1 RTZ       0.167800
     14 CAN          0.6250    -0.7460    -0.6480 c3         1 RTZ       0.069600
     15 CAO         -0.7860     1.7230     0.7140 ca         1 RTZ      -0.155000
     16 CAP          3.2080    -1.0780    -0.2910 c6         1 RTZ       0.187500
     17 CAQ         -1.3950     2.9890     0.6810 ca         1 RTZ      -0.054000
     18 CAR         -1.4910    -1.7490     0.1480 ca         1 RTZ       0.028000
     19 CAS         -1.3260     0.6410    -0.0090 ca         1 RTZ       0.043000
     20 CAT         -2.6980    -1.8690    -0.5760 ca         1 RTZ      -0.131000
     21 CAU         -2.5060     0.8330    -0.7570 ca         1 RTZ      -0.141000
     22 NAV          4.3380    -0.9850     0.6980 n3         1 RTZ      -0.714600
     23 NAW         -0.6980    -0.6080    -0.0010 na         1 RTZ      -0.091000
     24 SAY         -3.2530    -0.5370    -1.6350 ss         1 RTZ       0.028000
     25 HAA          5.0030    -1.6940     2.6000 h1         1 RTZ       0.031033
     26 HAAA         3.2870    -1.2950     2.5420 h1         1 RTZ       0.031033
     27 HAAB         3.8790    -2.7850     1.7590 h1         1 RTZ       0.031033
     28 HAB         -1.7060     6.0510     0.2790 h1         1 RTZ       0.066700
     29 HABA        -2.7090     5.6110     1.6990 h1         1 RTZ       0.066700
     30 HABB        -1.2730     6.6540     1.9030 h1         1 RTZ       0.066700
     31 HAC         -1.5500    -4.7670     1.7700 ha         1 RTZ       0.113000
     32 HAD         -3.6720    -4.9740     0.4790 ha         1 RTZ       0.118000
     33 HAE          5.1040     0.0640    -3.0390 hc         1 RTZ       0.040200
     34 HAEA         4.8310    -1.6230    -2.6010 hc         1 RTZ       0.040200
     35 HAF          6.9500    -0.8500    -1.5680 hc         1 RTZ       0.047700
     36 HAFA         6.1390     0.5300    -0.8290 hc         1 RTZ       0.047700
     37 HAG          3.5260     0.8410    -1.3000 hc         1 RTZ       0.046700
     38 HAGA         2.7440    -0.3600    -2.3210 hc         1 RTZ       0.046700
     39 HAH         -0.1620    -2.7220     1.5620 ha         1 RTZ       0.119000
     40 HAI         -4.4100    -3.1240    -1.0150 ha         1 RTZ       0.124000
     41 HAJ         -3.0620     4.1370    -0.1340 ha         1 RTZ       0.118000
     42 HAK         -4.0280     2.2430    -1.3750 ha         1 RTZ       0.124000
     43 HAL          1.9060     0.3670     0.7040 hc         1 RTZ       0.060200
     44 HALA         1.5970    -1.2920     1.1770 hc         1 RTZ       0.060200
     45 HAM          5.6170    -2.4350    -0.2090 h1         1 RTZ       0.029700
     46 HAMA         6.4520    -1.2730     0.8300 h1         1 RTZ       0.029700
     47 HAN          0.7120     0.0320    -1.4170 h1         1 RTZ       0.060700
     48 HANA         0.6560    -1.7170    -1.1610 h1         1 RTZ       0.060700
     49 HAO          0.1090     1.5830     1.3120 ha         1 RTZ       0.129000
     50 HAP          3.1070    -2.1260    -0.6100 h1         1 RTZ       0.015700
     51 SAX         -0.6350     4.3130     1.6300 ss         1 RTZ      -0.159000
@<TRIPOS>BOND
     1     1    22 1   
     2     1    25 1   
     3     1    26 1   
     4     1    27 1   
     5     2    28 1   
     6     2    29 1   
     7     2    30 1   
     8     2    51 1   
     9     3     4 ar  
    10     3     8 ar  
    11     3    31 1   
    12     4     9 ar  
    13     4    32 1   
    14     5     6 1   
    15     5     7 1   
    16     5    33 1   
    17     5    34 1   
    18     6    13 1   
    19     6    35 1   
    20     6    36 1   
    21     7    16 1   
    22     7    37 1   
    23     7    38 1   
    24     8    18 ar  
    25     8    39 1   
    26     9    20 ar  
    27     9    40 1   
    28    10    11 ar  
    29    10    17 ar  
    30    10    41 1   
    31    11    21 ar  
    32    11    42 1   
    33    12    14 1   
    34    12    16 1   
    35    12    43 1   
    36    12    44 1   
    37    13    22 1   
    38    13    45 1   
    39    13    46 1   
    40    14    23 1   
    41    14    47 1   
    42    14    48 1   
    43    15    17 ar  
    44    15    19 ar  
    45    15    49 1   
    46    16    22 1   
    47    16    50 1   
    48    17    51 1   
    49    18    20 ar  
    50    18    23 1   
    51    19    21 ar  
    52    19    23 1   
    53    20    24 1   
    54    21    24 1   
@<TRIPOS>SUBSTRUCTURE
     1 RTZ         1 TEMP              0 ****  ****    0 ROOT
