@<TRIPOS>MOLECULE
RU4
   28    29     1     0     0
SMALL
abcg2


@<TRIPOS>ATOM
      1 N1           4.6790     0.0140    -0.0810 ns         1 RU4      -0.501900
      2 N3          -3.6260     1.1310    -0.2340 nc         1 RU4      -0.300000
      3 C4           1.2310    -0.2910    -0.5010 ca         1 RU4       0.135100
      4 C5           0.5640     0.8650    -0.8740 ca         1 RU4      -0.113500
      5 C6          -0.8110     0.9340    -0.7350 ca         1 RU4      -0.074500
      6 C7          -1.5330    -0.1450    -0.2220 ca         1 RU4      -0.122500
      7 C8          -0.8400    -1.2960     0.1480 ca         1 RU4      -0.074500
      8 C10         -2.9900    -0.0660    -0.0800 cc         1 RU4       0.294500
      9 C1           7.0930     0.0660     0.2320 c3         1 RU4      -0.113100
     10 C11         -3.8610    -1.0860     0.1990 cd         1 RU4      -0.284000
     11 C2           5.7500     0.5710     0.7240 c3         1 RU4       0.120000
     12 C3           3.3950     0.1670     0.2490 c          1 RU4       0.638100
     13 C9           0.5360    -1.3730     0.0120 ca         1 RU4      -0.113500
     14 N2          -4.8830     1.0960    -0.0920 nd         1 RU4      -0.136100
     15 O1           2.9700     0.7140     1.2410 o          1 RU4      -0.518000
     16 O2           2.5890    -0.3960    -0.6900 os         1 RU4      -0.378200
     17 S1          -5.4200    -0.4560     0.2530 ss         1 RU4       0.290100
     18 H1           4.9110    -0.4100    -0.9650 hn         1 RU4       0.330500
     19 H3           1.1100     1.7060    -1.2820 ha         1 RU4       0.129000
     20 H4          -1.3260     1.8370    -1.0340 ha         1 RU4       0.126000
     21 H5          -1.3670    -2.1470     0.5600 ha         1 RU4       0.126000
     22 H7           7.1620    -1.0190     0.3100 hc         1 RU4       0.045033
     23 H8           7.2680     0.3470    -0.8070 hc         1 RU4       0.045033
     24 H9           7.8930     0.4970     0.8320 hc         1 RU4       0.045033
     25 H10         -3.6480    -2.1310     0.3580 h4         1 RU4       0.172000
     26 H12          5.7260     1.6630     0.6820 h1         1 RU4       0.052700
     27 H13          5.6050     0.2870     1.7670 h1         1 RU4       0.052700
     28 H14          1.0630    -2.2720     0.3040 ha         1 RU4       0.129000
@<TRIPOS>BOND
     1     1    11 1   
     2     1    12 1   
     3     1    18 1   
     4     2     8 1   
     5     2    14 2   
     6     3     4 ar  
     7     3    13 ar  
     8     3    16 1   
     9     4     5 ar  
    10     4    19 1   
    11     5     6 ar  
    12     5    20 1   
    13     6     7 ar  
    14     6     8 1   
    15     7    13 ar  
    16     7    21 1   
    17     8    10 2   
    18     9    11 1   
    19     9    22 1   
    20     9    23 1   
    21     9    24 1   
    22    10    17 1   
    23    10    25 1   
    24    11    26 1   
    25    11    27 1   
    26    12    15 2   
    27    12    16 1   
    28    13    28 1   
    29    14    17 1   
@<TRIPOS>SUBSTRUCTURE
     1 RU4         1 TEMP              0 ****  ****    0 ROOT
