@<TRIPOS>MOLECULE
RU4
   28    29     1     0     0
SMALL
No Charge or Current Charge


@<TRIPOS>ATOM
      1 N1           4.7220    -0.0260     0.1180 ns         1 RU4      -0.501900
      2 N3          -3.7280     1.1880    -0.0440 nc         1 RU4      -0.300000
      3 C4           1.2040    -0.3760    -0.1540 ca         1 RU4       0.135100
      4 C5           0.5910     0.8470    -0.4790 ca         1 RU4      -0.113500
      5 C6          -0.8100     0.9560    -0.4790 ca         1 RU4      -0.074500
      6 C7          -1.6230    -0.1620    -0.1810 ca         1 RU4      -0.122500
      7 C8          -0.9920    -1.3850     0.1500 ca         1 RU4      -0.074500
      8 C10         -3.0890    -0.0220    -0.1510 cc         1 RU4       0.294500
      9 C1           7.1960     0.0590    -0.0080 c3         1 RU4      -0.113100
     10 C11         -3.8990    -1.1130    -0.2720 cd         1 RU4      -0.284000
     11 C2           5.9170     0.6690     0.5870 c3         1 RU4       0.120000
     12 C3           3.4420     0.3740     0.3850 c          1 RU4       0.638100
     13 C9           0.4100    -1.4900     0.1500 ca         1 RU4      -0.113500
     14 N2          -5.0330     1.0450    -0.0620 nd         1 RU4      -0.136100
     15 O1           3.1440     1.3340     1.0790 o          1 RU4      -0.518000
     16 O2           2.5720    -0.5190    -0.1660 os         1 RU4      -0.378200
     17 S1          -5.5420    -0.5440    -0.2200 ss         1 RU4       0.290100
     18 H1           4.8220    -0.8590    -0.4480 hn         1 RU4       0.330500
     19 H3           1.1960     1.7140    -0.7350 ha         1 RU4       0.129000
     20 H4          -1.2620     1.9140    -0.7280 ha         1 RU4       0.126000
     21 H5          -1.5780    -2.2610     0.4160 ha         1 RU4       0.126000
     22 H7           7.2930    -0.9950     0.2790 hc         1 RU4       0.045033
     23 H8           7.1820     0.1240    -1.1030 hc         1 RU4       0.045033
     24 H9           8.0780     0.5970     0.3570 hc         1 RU4       0.045033
     25 H10         -3.6620    -2.1600    -0.3980 h4         1 RU4       0.172000
     26 H12          5.8500     1.7280     0.3030 h1         1 RU4       0.052700
     27 H13          5.9560     0.6090     1.6830 h1         1 RU4       0.052700
     28 H14          0.8830    -2.4380     0.3960 ha         1 RU4       0.129000
@<TRIPOS>BOND
     1     1    11 1   
     2     1    12 1   
     3     1    18 1   
     4     2     8 1   
     5     2    14 2   
     6     3     4 ar  
     7     3    13 ar  
     8     3    16 1   
     9     4     5 ar  
    10     4    19 1   
    11     5     6 ar  
    12     5    20 1   
    13     6     7 ar  
    14     6     8 1   
    15     7    13 ar  
    16     7    21 1   
    17     8    10 2   
    18     9    11 1   
    19     9    22 1   
    20     9    23 1   
    21     9    24 1   
    22    10    17 1   
    23    10    25 1   
    24    11    26 1   
    25    11    27 1   
    26    12    15 2   
    27    12    16 1   
    28    13    28 1   
    29    14    17 1   
@<TRIPOS>SUBSTRUCTURE
     1 RU4         1 TEMP              0 ****  ****    0 ROOT
