@<TRIPOS>MOLECULE
RU5
   40    43     1     0     0
SMALL
No Charge or Current Charge


@<TRIPOS>ATOM
      1 C1          -7.4460     1.4050    -0.4700 c          1 RU5       0.616700
      2 N1          -8.6530     1.0690     0.0360 nt         1 RU5      -0.600000
      3 O1           3.6920    -1.7960    -0.0560 os         1 RU5      -0.249200
      4 C2          -6.2400     0.5930    -0.0480 ca         1 RU5      -0.142600
      5 C3          -4.9630     0.9280    -0.5670 ca         1 RU5      -0.051000
      6 N3          -2.5470     0.3000    -0.5300 na         1 RU5      -0.303600
      7 C4          -3.8580     0.1660    -0.1660 ca         1 RU5      -0.095200
      8 N4          -2.7290    -1.4660     0.9330 nc         1 RU5      -0.579100
      9 C5          -1.8950    -0.7260     0.1720 cd         1 RU5       0.483400
     10 C6          -3.9590    -0.8800     0.6990 ca         1 RU5       0.092400
     11 C7          -5.2020    -1.2430     1.2330 ca         1 RU5      -0.060000
     12 C8          -6.3450    -0.5030     0.8570 ca         1 RU5      -0.112000
     13 C9          -0.4390    -0.9970     0.1090 ca         1 RU5      -0.137900
     14 ClA          7.9400     2.3550    -0.3650 cl         1 RU5      -0.198000
     15 C10          0.1340    -2.0530     0.8580 ca         1 RU5      -0.058000
     16 C11          1.5150    -2.3090     0.7960 ca         1 RU5      -0.146500
     17 C12          2.3450    -1.5150    -0.0050 ca         1 RU5       0.134100
     18 C13          1.7890    -0.4710    -0.7660 ca         1 RU5      -0.146500
     19 C14          0.4090    -0.2120    -0.7070 ca         1 RU5      -0.058000
     20 C15          4.6580    -0.8180    -0.1250 ca         1 RU5       0.116100
     21 C16          4.5330     0.3820     0.6040 ca         1 RU5      -0.132000
     22 C17          5.5430     1.3590     0.5270 ca         1 RU5      -0.080500
     23 C18          6.6780     1.1340    -0.2700 ca         1 RU5       0.101000
     24 C19          6.8110    -0.0680    -0.9870 ca         1 RU5      -0.080500
     25 C20          5.8010    -1.0460    -0.9100 ca         1 RU5      -0.132000
     26 OAB         -7.3710     2.3450    -1.2440 o          1 RU5      -0.609100
     27 HN1         -8.7370     0.2960     0.6770 hn         1 RU5       0.312500
     28 HN1A        -9.4650     1.6020    -0.2360 hn         1 RU5       0.312500
     29 H3          -4.8370     1.7560    -1.2610 ha         1 RU5       0.141000
     30 HN3         -2.1280     0.9750    -1.1550 hn         1 RU5       0.361000
     31 H7          -5.2820    -2.0780     1.9240 ha         1 RU5       0.132000
     32 H8          -7.3040    -0.7930     1.2780 ha         1 RU5       0.112000
     33 H10         -0.4870    -2.6820     1.4930 ha         1 RU5       0.127000
     34 H11          1.9420    -3.1240     1.3750 ha         1 RU5       0.134000
     35 H13          2.4230     0.1360    -1.4080 ha         1 RU5       0.134000
     36 H14          0.0080     0.6040    -1.3050 ha         1 RU5       0.127000
     37 H16          3.6620     0.5570     1.2310 ha         1 RU5       0.134000
     38 H17          5.4480     2.2870     1.0850 ha         1 RU5       0.133000
     39 H19          7.6930    -0.2410    -1.5980 ha         1 RU5       0.133000
     40 H20          5.9020    -1.9770    -1.4620 ha         1 RU5       0.134000
@<TRIPOS>BOND
     1     1     2 1   
     2     1     4 1   
     3     1    26 2   
     4     2    27 1   
     5     2    28 1   
     6     3    17 1   
     7     3    20 1   
     8     4     5 ar  
     9     4    12 ar  
    10     5     7 ar  
    11     5    29 1   
    12     6     7 1   
    13     6     9 1   
    14     6    30 1   
    15     7    10 ar  
    16     8     9 2   
    17     8    10 1   
    18     9    13 1   
    19    10    11 ar  
    20    11    12 ar  
    21    11    31 1   
    22    12    32 1   
    23    13    15 ar  
    24    13    19 ar  
    25    14    23 1   
    26    15    16 ar  
    27    15    33 1   
    28    16    17 ar  
    29    16    34 1   
    30    17    18 ar  
    31    18    19 ar  
    32    18    35 1   
    33    19    36 1   
    34    20    21 ar  
    35    20    25 ar  
    36    21    22 ar  
    37    21    37 1   
    38    22    23 ar  
    39    22    38 1   
    40    23    24 ar  
    41    24    25 ar  
    42    24    39 1   
    43    25    40 1   
@<TRIPOS>SUBSTRUCTURE
     1 RU5         1 TEMP              0 ****  ****    0 ROOT
