@<TRIPOS>MOLECULE
RU5
   40    43     1     0     0
SMALL
abcg2


@<TRIPOS>ATOM
      1 C1          -7.3890     1.1990    -0.6110 c          1 RU5       0.616700
      2 N1          -8.4310     1.2750     0.2330 nt         1 RU5      -0.600000
      3 O1           3.6380    -1.7780    -0.1570 os         1 RU5      -0.249200
      4 C2          -6.1790     0.4740    -0.1160 ca         1 RU5      -0.142600
      5 C3          -4.9750     0.7360    -0.7590 ca         1 RU5      -0.051000
      6 N3          -2.5390     0.0990    -0.6700 na         1 RU5      -0.303600
      7 C4          -3.8540     0.0700    -0.2950 ca         1 RU5      -0.095200
      8 N4          -2.6520    -1.3610     0.9990 nc         1 RU5      -0.579100
      9 C5          -1.8670    -0.7710     0.1310 cd         1 RU5       0.483400
     10 C6          -3.9010    -0.8570     0.7610 ca         1 RU5       0.092400
     11 C7          -5.1180    -1.1260     1.3860 ca         1 RU5      -0.060000
     12 C8          -6.2390    -0.4550     0.9410 ca         1 RU5      -0.112000
     13 C9          -0.4300    -1.0040     0.0280 ca         1 RU5      -0.137900
     14 CLA          7.8170     2.3230    -0.0730 cl         1 RU5      -0.198000
     15 C10          0.1370    -2.0840     0.7050 ca         1 RU5      -0.058000
     16 C11          1.4980    -2.3200     0.6480 ca         1 RU5      -0.146500
     17 C12          2.3100    -1.4740    -0.0980 ca         1 RU5       0.134100
     18 C13          1.7640    -0.3990    -0.7890 ca         1 RU5      -0.146500
     19 C14          0.4010    -0.1700    -0.7190 ca         1 RU5      -0.058000
     20 C15          4.5680    -0.7770    -0.1400 ca         1 RU5       0.116100
     21 C16          4.4590     0.3160     0.7120 ca         1 RU5      -0.132000
     22 C17          5.4610     1.2740     0.7280 ca         1 RU5      -0.080500
     23 C18          6.5640     1.1250    -0.0980 ca         1 RU5       0.101000
     24 C19          6.6810     0.0320    -0.9420 ca         1 RU5      -0.080500
     25 C20          5.6730    -0.9190    -0.9670 ca         1 RU5      -0.132000
     26 OAB         -7.4170     1.6910    -1.7320 o          1 RU5      -0.609100
     27 HN1         -8.3580     1.0330     1.2060 hn         1 RU5       0.312500
     28 HN1A        -9.2460     1.8000    -0.0400 hn         1 RU5       0.312500
     29 H3          -4.9210     1.4400    -1.5790 ha         1 RU5       0.141000
     30 HN3         -2.1560     0.6320    -1.4340 hn         1 RU5       0.361000
     31 H7          -5.1820    -1.8440     2.1930 ha         1 RU5       0.132000
     32 H8          -7.1870    -0.6810     1.4110 ha         1 RU5       0.112000
     33 H10         -0.4940    -2.7420     1.2880 ha         1 RU5       0.127000
     34 H11          1.9320    -3.1590     1.1750 ha         1 RU5       0.134000
     35 H13          2.3870     0.2610    -1.3790 ha         1 RU5       0.134000
     36 H14          0.0040     0.6850    -1.2520 ha         1 RU5       0.127000
     37 H16          3.6040     0.4300     1.3640 ha         1 RU5       0.134000
     38 H17          5.3790     2.1260     1.3890 ha         1 RU5       0.133000
     39 H19          7.5480    -0.0760    -1.5770 ha         1 RU5       0.133000
     40 H20          5.7500    -1.7730    -1.6270 ha         1 RU5       0.134000
@<TRIPOS>BOND
     1     1     2 1   
     2     1     4 1   
     3     1    26 2   
     4     2    27 1   
     5     2    28 1   
     6     3    17 1   
     7     3    20 1   
     8     4     5 ar  
     9     4    12 ar  
    10     5     7 ar  
    11     5    29 1   
    12     6     7 1   
    13     6     9 1   
    14     6    30 1   
    15     7    10 ar  
    16     8     9 2   
    17     8    10 1   
    18     9    13 1   
    19    10    11 ar  
    20    11    12 ar  
    21    11    31 1   
    22    12    32 1   
    23    13    15 ar  
    24    13    19 ar  
    25    14    23 1   
    26    15    16 ar  
    27    15    33 1   
    28    16    17 ar  
    29    16    34 1   
    30    17    18 ar  
    31    18    19 ar  
    32    18    35 1   
    33    19    36 1   
    34    20    21 ar  
    35    20    25 ar  
    36    21    22 ar  
    37    21    37 1   
    38    22    23 ar  
    39    22    38 1   
    40    23    24 ar  
    41    24    25 ar  
    42    24    39 1   
    43    25    40 1   
@<TRIPOS>SUBSTRUCTURE
     1 RU5         1 TEMP              0 ****  ****    0 ROOT
