@<TRIPOS>MOLECULE
RU6
  150   155     1     0     0
SMALL
No Charge or Current Charge


@<TRIPOS>ATOM
      1 O9           7.1220    -1.3030     1.5720 os         1 RU6      -0.495000
      2 O7           6.0940    -1.8970     3.5910 os         1 RU6      -0.431000
      3 O8           7.8190     0.1770     4.9540 oh         1 RU6      -0.711000
      4 O2           0.1050    -3.0890     4.9680 os         1 RU6      -0.451100
      5 O13         -0.8010    -6.6010     5.6400 os         1 RU6      -0.427100
      6 O10          3.4710    -4.3200     2.5370 os         1 RU6      -0.488000
      7 O3           2.5730    -0.2640     2.2750 os         1 RU6      -0.467000
      8 O5           4.0110     2.0650     1.0050 os         1 RU6      -0.472000
      9 O6           4.7530     1.3550    -1.4920 oh         1 RU6      -0.708000
     10 O4           2.2430    -0.9610     0.0310 os         1 RU6      -0.490000
     11 N1           9.8270     1.4430     3.4890 n3         1 RU6      -0.740600
     12 N2           0.2890    -6.7650     3.7060 n          1 RU6      -0.438800
     13 N3          -0.2130    -4.2880    -2.0700 na         1 RU6      -0.161500
     14 N4           0.7380    -3.4240    -3.8970 nc         1 RU6      -0.679000
     15 N5          -0.7640    -6.9560    -7.0080 nb         1 RU6      -0.670000
     16 C1           0.0840    -2.2210     3.9060 c          1 RU6       0.604100
     17 C2           1.1030    -1.0960     4.0980 c3         1 RU6      -0.149700
     18 C30          0.4490     0.3140     4.0520 c3         1 RU6      -0.079100
     19 C4           3.6680    -1.5850     3.9860 c3         1 RU6      -0.069700
     20 C31          4.1170    -0.2780     4.7130 c3         1 RU6      -0.081100
     21 C5           4.7850    -2.2830     3.1110 c3         1 RU6       0.162300
     22 C22          6.7450    -0.8250     2.8790 c6         1 RU6       0.391300
     23 C23          8.0290    -0.3270     3.6200 c6         1 RU6       0.153300
     24 C24          8.6600     0.8180     2.7810 c6         1 RU6       0.136500
     25 C25          8.9550     0.3130     1.3430 c6         1 RU6      -0.136400
     26 C26          7.6610    -0.2770     0.7190 c6         1 RU6       0.184300
     27 C27          7.9110    -0.9200    -0.6630 c3         1 RU6      -0.090100
     28 C28         10.2300     2.7480     2.9130 c3         1 RU6       0.154600
     29 C29         10.9960     0.5480     3.7020 c3         1 RU6       0.154600
     30 C6           4.7620    -3.8710     3.0230 c3         1 RU6       0.191000
     31 C32          5.8600    -4.3660     2.0300 c3         1 RU6      -0.118100
     32 C7           4.9500    -4.5620     4.4210 c3         1 RU6      -0.058400
     33 C8           4.9670    -6.1270     4.4480 c3         1 RU6      -0.160700
     34 C33          5.5050    -6.6630     5.8020 c3         1 RU6      -0.088100
     35 C9           3.6060    -6.7760     4.0650 c          1 RU6       0.602100
     36 C10          2.4300    -6.6690     5.0750 c3         1 RU6      -0.162700
     37 C11          1.1750    -5.9040     4.5100 c5         1 RU6       0.106700
     38 C39         -0.8100    -7.2130     4.4260 c          1 RU6       0.689100
     39 C13         -0.7640    -4.2410     4.9860 c3         1 RU6       0.155300
     40 C12          0.0760    -5.4500     5.5610 c5         1 RU6       0.168000
     41 C35          0.5910    -5.1200     6.9940 c3         1 RU6      -0.082100
     42 C38          3.1500    -4.0970     1.1460 c3         1 RU6       0.136900
     43 C41         -0.2900    -5.7320     1.5170 c3         1 RU6      -0.115400
     44 C42         -0.0840    -5.7310    -0.0120 c3         1 RU6      -0.091400
     45 C43         -0.6150    -4.4360    -0.6640 c3         1 RU6       0.064600
     46 C44          0.5620    -3.2570    -2.5910 cd         1 RU6       0.392400
     47 C45          0.0670    -4.5700    -4.2040 cc         1 RU6       0.286500
     48 C46         -0.0190    -5.1480    -5.5490 ca         1 RU6      -0.144500
     49 C47          0.5630    -4.4910    -6.6540 ca         1 RU6      -0.054000
     50 C48          0.4640    -5.0840    -7.9230 ca         1 RU6      -0.168000
     51 C49         -0.2060    -6.3100    -8.0560 ca         1 RU6       0.327900
     52 C50         -0.6670    -6.3810    -5.7850 ca         1 RU6       0.334900
     53 C51         -0.5390    -5.1350    -3.1150 cd         1 RU6      -0.208000
     54 C34          2.1350    -8.0730     5.6780 c3         1 RU6      -0.091100
     55 C36         -2.0500    -3.8670     5.7780 c3         1 RU6      -0.088400
     56 C37         -2.9680    -2.8420     5.0780 c3         1 RU6      -0.091100
     57 C3           2.3470    -1.3640     3.1800 c3         1 RU6       0.183300
     58 C14          1.7340    -0.1490     1.1110 c6         1 RU6       0.390300
     59 C15          1.6190     1.3230     0.6580 c6         1 RU6      -0.124400
     60 C16          2.9310     1.8960     0.0390 c6         1 RU6       0.156000
     61 C19          2.6520     3.3060    -0.5730 c3         1 RU6      -0.115100
     62 C17          3.4490     0.9190    -1.0650 c6         1 RU6       0.153300
     63 C18          3.5200    -0.5410    -0.5090 c6         1 RU6       0.146300
     64 C21          3.8830    -1.5560    -1.6260 c3         1 RU6      -0.093100
     65 HO8          8.5340     0.8590     5.0260 ho         1 RU6       0.528000
     66 HO6          5.1020     1.8230    -0.6960 ho         1 RU6       0.511000
     67 H2           1.4480    -1.2100     5.1310 hc         1 RU6       0.084700
     68 H301        -0.2690     0.4220     4.8740 hc         1 RU6       0.046367
     69 H302         1.2040     1.1010     4.1630 hc         1 RU6       0.046367
     70 H303        -0.0990     0.4810     3.1180 hc         1 RU6       0.046367
     71 H4           3.4160    -2.2790     4.7910 hc         1 RU6       0.060700
     72 H311         4.9740    -0.4660     5.3710 hc         1 RU6       0.042033
     73 H312         4.3900     0.5080     4.0020 hc         1 RU6       0.042033
     74 H313         3.3180     0.1200     5.3480 hc         1 RU6       0.042033
     75 H5           4.6660    -1.9060     2.0880 h1         1 RU6       0.060700
     76 H22          6.0470     0.0170     2.7670 h2         1 RU6       0.045700
     77 H23          8.7330    -1.1700     3.6520 h1         1 RU6       0.055700
     78 H24          7.8790     1.5890     2.6840 h1         1 RU6       0.060700
     79 H251         9.3220     1.1340     0.7140 hc         1 RU6       0.057200
     80 H252         9.7380    -0.4560     1.3570 hc         1 RU6       0.057200
     81 H26          6.9040     0.5140     0.6140 h1         1 RU6       0.033700
     82 H271         8.2570    -0.1730    -1.3870 hc         1 RU6       0.048033
     83 H272         8.6710    -1.7080    -0.6040 hc         1 RU6       0.048033
     84 H273         6.9940    -1.3680    -1.0590 hc         1 RU6       0.048033
     85 H281         9.3660     3.4200     2.8280 h1         1 RU6       0.034867
     86 H282        10.6700     2.6220     1.9150 h1         1 RU6       0.034867
     87 H283        10.9750     3.2390     3.5540 h1         1 RU6       0.034867
     88 H291        10.7100    -0.3720     4.2260 h1         1 RU6       0.034867
     89 H292        11.7560     1.0510     4.3140 h1         1 RU6       0.034867
     90 H293        11.4630     0.2720     2.7470 h1         1 RU6       0.034867
     91 H321         5.8870    -3.7470     1.1250 hc         1 RU6       0.053033
     92 H322         6.8530    -4.3080     2.4910 hc         1 RU6       0.053033
     93 H323         5.6890    -5.4020     1.7190 hc         1 RU6       0.053033
     94 H71          4.1730    -4.2290     5.1150 hc         1 RU6       0.060700
     95 H72          5.8960    -4.2040     4.8460 hc         1 RU6       0.060700
     96 H8           5.6880    -6.4700     3.6980 hc         1 RU6       0.074700
     97 H331         6.5410    -6.3380     5.9580 hc         1 RU6       0.039700
     98 H332         4.9130    -6.3010     6.6510 hc         1 RU6       0.039700
     99 H333         5.4940    -7.7600     5.8150 hc         1 RU6       0.039700
    100 H10          2.8140    -6.0530     5.8910 hc         1 RU6       0.065700
    101 H11          1.5220    -5.0400     3.9330 h1         1 RU6       0.091700
    102 H13         -1.0720    -4.5160     3.9690 h1         1 RU6       0.074700
    103 H351         1.0770    -5.9810     7.4630 hc         1 RU6       0.056033
    104 H352         1.3170    -4.2980     6.9790 hc         1 RU6       0.056033
    105 H353        -0.2240    -4.8310     7.6650 hc         1 RU6       0.056033
    106 H381         3.6750    -4.8090     0.4970 h1         1 RU6       0.037700
    107 H382         3.4160    -3.0830     0.8390 h1         1 RU6       0.037700
    108 H383         2.0770    -4.2180     0.9800 h1         1 RU6       0.037700
    109 H401        -0.1600    -7.8620     1.9450 h1         1 RU6       0.075700
    110 H402         1.3930    -7.0180     1.9280 h1         1 RU6       0.075700
    111 H411         0.1370    -4.8110     1.9290 hc         1 RU6       0.053200
    112 H412        -1.3640    -5.7060     1.7400 hc         1 RU6       0.053200
    113 H421        -0.5870    -6.6000    -0.4540 hc         1 RU6       0.055700
    114 H422         0.9850    -5.8360    -0.2340 hc         1 RU6       0.055700
    115 H431        -0.2360    -3.5690    -0.1060 h1         1 RU6       0.068700
    116 H432        -1.7110    -4.4170    -0.6040 h1         1 RU6       0.068700
    117 H44          0.9430    -2.4500    -1.9760 h5         1 RU6       0.068100
    118 H47          1.0800    -3.5400    -6.5360 ha         1 RU6       0.137000
    119 H48          0.8980    -4.6050    -8.7950 ha         1 RU6       0.120000
    120 H49         -0.2970    -6.7920    -9.0290 h4         1 RU6       0.015100
    121 H50         -1.1290    -6.9420    -4.9750 h4         1 RU6       0.012100
    122 H51         -1.1460    -6.0250    -2.9990 h4         1 RU6       0.160000
    123 H341         3.0370    -8.4930     6.1370 hc         1 RU6       0.047367
    124 H342         1.3600    -8.0310     6.4500 hc         1 RU6       0.047367
    125 H343         1.8000    -8.7710     4.9010 hc         1 RU6       0.047367
    126 H361        -1.7800    -3.4680     6.7630 hc         1 RU6       0.062200
    127 H362        -2.6350    -4.7770     5.9580 hc         1 RU6       0.062200
    128 H371        -2.4810    -1.8630     5.0020 hc         1 RU6       0.037367
    129 H372        -3.2320    -3.1820     4.0690 hc         1 RU6       0.037367
    130 H373        -3.8950    -2.7120     5.6480 hc         1 RU6       0.037367
    131 H3           2.1390    -2.2710     2.6050 h1         1 RU6       0.062700
    132 H14          0.7240    -0.5040     1.3620 h2         1 RU6       0.072700
    133 H151         0.8180     1.3770    -0.0920 hc         1 RU6       0.064200
    134 H152         1.2710     1.9430     1.4920 hc         1 RU6       0.064200
    135 H201         3.0080     2.4430     2.8180 h1         1 RU6       0.031033
    136 H202         3.5370     3.8990     1.9340 h1         1 RU6       0.031033
    137 H203         4.7180     2.8930     2.7880 h1         1 RU6       0.031033
    138 H191         3.5780     3.8090    -0.8750 hc         1 RU6       0.047367
    139 H192         2.0140     3.2300    -1.4620 hc         1 RU6       0.047367
    140 H193         2.1320     3.9620     0.1350 hc         1 RU6       0.047367
    141 H17          2.7440     0.9300    -1.9100 h1         1 RU6       0.084700
    142 H18          4.2810    -0.5990     0.2830 h1         1 RU6       0.054700
    143 H211         3.9380    -2.5800    -1.2460 hc         1 RU6       0.051700
    144 H212         3.1410    -1.5370    -2.4330 hc         1 RU6       0.051700
    145 H213         4.8550    -1.3230    -2.0740 hc         1 RU6       0.051700
    146 C40          0.3470    -6.9340     2.2400 c3         1 RU6       0.120000
    147 O1          -0.6140    -2.3460     2.9100 o          1 RU6      -0.501000
    148 O12         -1.6560    -8.0040     4.0420 o          1 RU6      -0.531000
    149 O11          3.5110    -7.4450     3.0430 o          1 RU6      -0.528100
    150 C20          3.8000     2.8650     2.1880 c3         1 RU6       0.153900
@<TRIPOS>BOND
     1     1    22 1   
     2     1    26 1   
     3     2    21 1   
     4     2    22 1   
     5     3    23 1   
     6     3    65 1   
     7     4    16 1   
     8     4    39 1   
     9     5    38 1   
    10     5    40 1   
    11     6    30 1   
    12     6    42 1   
    13     7    57 1   
    14     7    58 1   
    15     8    60 1   
    16     8   150 1   
    17     9    62 1   
    18     9    66 1   
    19    10    58 1   
    20    10    63 1   
    21    11    24 1   
    22    11    28 1   
    23    11    29 1   
    24    12    37 1   
    25    12    38 1   
    26    12   146 1   
    27    13    45 1   
    28    13    46 1   
    29    13    53 1   
    30    14    46 2   
    31    14    47 1   
    32    15    51 ar  
    33    15    52 ar  
    34    16    17 1   
    35    16   147 2   
    36    17    18 1   
    37    17    57 1   
    38    17    67 1   
    39    18    68 1   
    40    18    69 1   
    41    18    70 1   
    42    19    20 1   
    43    19    21 1   
    44    19    57 1   
    45    19    71 1   
    46    20    72 1   
    47    20    73 1   
    48    20    74 1   
    49    21    30 1   
    50    21    75 1   
    51    22    23 1   
    52    22    76 1   
    53    23    24 1   
    54    23    77 1   
    55    24    25 1   
    56    24    78 1   
    57    25    26 1   
    58    25    79 1   
    59    25    80 1   
    60    26    27 1   
    61    26    81 1   
    62    27    82 1   
    63    27    83 1   
    64    27    84 1   
    65    28    85 1   
    66    28    86 1   
    67    28    87 1   
    68    29    88 1   
    69    29    89 1   
    70    29    90 1   
    71    30    31 1   
    72    30    32 1   
    73    31    91 1   
    74    31    92 1   
    75    31    93 1   
    76    32    33 1   
    77    32    94 1   
    78    32    95 1   
    79    33    34 1   
    80    33    35 1   
    81    33    96 1   
    82    34    97 1   
    83    34    98 1   
    84    34    99 1   
    85    35    36 1   
    86    35   149 2   
    87    36    37 1   
    88    36    54 1   
    89    36   100 1   
    90    37    40 1   
    91    37   101 1   
    92    38   148 2   
    93    39    40 1   
    94    39    55 1   
    95    39   102 1   
    96    40    41 1   
    97    41   103 1   
    98    41   104 1   
    99    41   105 1   
   100    42   106 1   
   101    42   107 1   
   102    42   108 1   
   103    43    44 1   
   104    43   111 1   
   105    43   112 1   
   106    43   146 1   
   107    44    45 1   
   108    44   113 1   
   109    44   114 1   
   110    45   115 1   
   111    45   116 1   
   112    46   117 1   
   113    47    48 1   
   114    47    53 2   
   115    48    49 ar  
   116    48    52 ar  
   117    49    50 ar  
   118    49   118 1   
   119    50    51 ar  
   120    50   119 1   
   121    51   120 1   
   122    52   121 1   
   123    53   122 1   
   124    54   123 1   
   125    54   124 1   
   126    54   125 1   
   127    55    56 1   
   128    55   126 1   
   129    55   127 1   
   130    56   128 1   
   131    56   129 1   
   132    56   130 1   
   133    57   131 1   
   134    58    59 1   
   135    58   132 1   
   136    59    60 1   
   137    59   133 1   
   138    59   134 1   
   139    60    61 1   
   140    60    62 1   
   141    61   138 1   
   142    61   139 1   
   143    61   140 1   
   144    62    63 1   
   145    62   141 1   
   146    63    64 1   
   147    63   142 1   
   148    64   143 1   
   149    64   144 1   
   150    64   145 1   
   151   109   146 1   
   152   110   146 1   
   153   135   150 1   
   154   136   150 1   
   155   137   150 1   
@<TRIPOS>SUBSTRUCTURE
     1 RU6         1 TEMP              0 ****  ****    0 ROOT
