@<TRIPOS>MOLECULE
RU6
  150   155     1     0     0
SMALL
bcc


@<TRIPOS>ATOM
      1 O9           6.9320    -1.3740     1.3490 os         1 RU6      -0.448600
      2 O7           5.9500    -1.9580     3.3010 os         1 RU6      -0.384600
      3 O8           7.3710     0.0670     4.6480 oh         1 RU6      -0.588800
      4 O2           0.1840    -3.0560     5.0240 os         1 RU6      -0.427900
      5 O13         -0.7330    -6.4750     5.8110 os         1 RU6      -0.403900
      6 O10          3.2580    -4.2820     2.6240 os         1 RU6      -0.441600
      7 O3           2.5790    -0.1850     2.2640 os         1 RU6      -0.420600
      8 O5           4.2660     1.7900     0.8820 os         1 RU6      -0.425600
      9 O6           4.7670     1.1730    -1.7390 oh         1 RU6      -0.585800
     10 O4           2.3710    -0.9410     0.0630 os         1 RU6      -0.443600
     11 N1           9.4320     1.3480     3.3500 n3         1 RU6      -0.740600
     12 N2           0.2270    -6.7910     3.8560 n          1 RU6      -0.505800
     13 N3          -0.3420    -4.4310    -1.7610 na         1 RU6      -0.182900
     14 N4           0.9230    -3.4420    -3.2660 nc         1 RU6      -0.679000
     15 N5          -0.1050    -6.1690    -7.1640 nb         1 RU6      -0.670000
     16 C1           0.1760    -2.3140     3.9160 c          1 RU6       0.653100
     17 C2           1.0900    -1.1180     4.0250 c3         1 RU6      -0.149700
     18 C30          0.2790     0.1600     3.8130 c3         1 RU6      -0.079100
     19 C4           3.5510    -1.6960     3.8490 c3         1 RU6      -0.069700
     20 C31          4.0520    -0.5140     4.6770 c3         1 RU6      -0.081100
     21 C5           4.6310    -2.3240     2.9320 c3         1 RU6       0.139100
     22 C22          6.5190    -0.9060     2.6110 c6         1 RU6       0.344900
     23 C23          7.7340    -0.3990     3.3790 c6         1 RU6       0.130100
     24 C24          8.3700     0.7330     2.5680 c6         1 RU6       0.136500
     25 C25          8.7240     0.2350     1.1690 c6         1 RU6      -0.136400
     26 C26          7.4820    -0.3620     0.5200 c6         1 RU6       0.161100
     27 C27          7.7680    -0.9730    -0.8350 c3         1 RU6      -0.090100
     28 C28          9.6850     2.7250     2.9830 c3         1 RU6       0.154600
     29 C29         10.6640     0.5850     3.4120 c3         1 RU6       0.154600
     30 C6           4.5950    -3.8780     2.8970 c3         1 RU6       0.167800
     31 C32          5.5800    -4.3900     1.8450 c3         1 RU6      -0.118100
     32 C7           4.9110    -4.4890     4.2660 c3         1 RU6      -0.058400
     33 C8           4.9040    -6.0220     4.3010 c3         1 RU6      -0.160700
     34 C33          5.4160    -6.5070     5.6610 c3         1 RU6      -0.088100
     35 C9           3.5460    -6.6240     3.9780 c          1 RU6       0.602100
     36 C10          2.4410    -6.4870     5.0260 c3         1 RU6      -0.162700
     37 C11          1.1170    -5.8610     4.5220 c5         1 RU6       0.106700
     38 C39         -0.8000    -7.1560     4.6490 c          1 RU6       0.831600
     39 C13         -0.6940    -4.1820     5.1510 c3         1 RU6       0.132100
     40 C12          0.1710    -5.3660     5.6580 c5         1 RU6       0.144800
     41 C35          0.8110    -5.0660     6.9970 c3         1 RU6      -0.082100
     42 C38          2.8540    -4.3420     1.2780 c3         1 RU6       0.113700
     43 C41         -0.5750    -5.9890     1.6740 c3         1 RU6      -0.115400
     44 C42         -0.3120    -5.9860     0.1740 c3         1 RU6      -0.091400
     45 C43         -0.9200    -4.7410    -0.4690 c3         1 RU6       0.035300
     46 C44          0.5380    -3.4390    -2.0190 cd         1 RU6       0.392400
     47 C45          0.2700    -4.4890    -3.8540 cc         1 RU6       0.351800
     48 C46          0.4570    -4.8060    -5.2660 ca         1 RU6      -0.209800
     49 C47          1.3480    -4.0830    -6.0560 ca         1 RU6      -0.072000
     50 C48          1.4980    -4.4190    -7.3910 ca         1 RU6      -0.251300
     51 C49          0.7510    -5.4690    -7.9020 ca         1 RU6       0.393200
     52 C50         -0.2420    -5.8430    -5.8880 ca         1 RU6       0.400200
     53 C51         -0.5220    -5.1170    -2.9240 cd         1 RU6      -0.240600
     54 C34          2.2480    -7.8780     5.6410 c3         1 RU6      -0.091100
     55 C36         -1.8530    -3.8060     6.0640 c3         1 RU6      -0.088400
     56 C37         -2.7210    -2.6840     5.5070 c3         1 RU6      -0.091100
     57 C3           2.2950    -1.3230     3.0460 c3         1 RU6       0.160100
     58 C14          1.8740    -0.0880     1.0570 c6         1 RU6       0.343900
     59 C15          1.8600     1.3620     0.6080 c6         1 RU6      -0.124400
     60 C16          3.1720     1.8390    -0.0190 c6         1 RU6       0.132800
     61 C19          2.9810     3.2400    -0.5990 c3         1 RU6      -0.115100
     62 C17          3.5530     0.8350    -1.1150 c6         1 RU6       0.130100
     63 C18          3.6030    -0.5960    -0.5610 c6         1 RU6       0.123100
     64 C21          3.8360    -1.6150    -1.6590 c3         1 RU6      -0.093100
     65 HO8          8.0440     0.7330     4.8610 ho         1 RU6       0.429000
     66 HO6          5.4100     1.3660    -1.0470 ho         1 RU6       0.412000
     67 H2           1.4740    -1.0830     5.0450 hc         1 RU6       0.084700
     68 H301        -0.4680     0.2600     4.6020 hc         1 RU6       0.046367
     69 H302         0.9270     1.0330     3.8630 hc         1 RU6       0.046367
     70 H303        -0.2480     0.1780     2.8610 hc         1 RU6       0.046367
     71 H4           3.2170    -2.4550     4.5630 hc         1 RU6       0.060700
     72 H311         4.8700    -0.8070     5.3300 hc         1 RU6       0.042033
     73 H312         4.3980     0.3160     4.0640 hc         1 RU6       0.042033
     74 H313         3.2540    -0.1320     5.3150 hc         1 RU6       0.042033
     75 H5           4.4480    -1.9840     1.9060 h1         1 RU6       0.060700
     76 H22          5.7930    -0.0850     2.4690 h2         1 RU6       0.045700
     77 H23          8.4450    -1.2400     3.4520 h1         1 RU6       0.055700
     78 H24          7.5960     1.5050     2.4580 h1         1 RU6       0.060700
     79 H251         9.1000     1.0540     0.5500 hc         1 RU6       0.057200
     80 H252         9.5080    -0.5270     1.2130 hc         1 RU6       0.057200
     81 H26          6.7400     0.4450     0.4010 h1         1 RU6       0.033700
     82 H271         8.1740    -0.2150    -1.5050 hc         1 RU6       0.048033
     83 H272         8.4980    -1.7790    -0.7540 hc         1 RU6       0.048033
     84 H273         6.8620    -1.3740    -1.2900 hc         1 RU6       0.048033
     85 H281         8.7640     3.3060     3.0420 h1         1 RU6       0.034867
     86 H282        10.0960     2.8440     1.9700 h1         1 RU6       0.034867
     87 H283        10.4010     3.1650     3.6790 h1         1 RU6       0.034867
     88 H291        10.4690    -0.4570     3.6670 h1         1 RU6       0.034867
     89 H292        11.3060     0.9970     4.1930 h1         1 RU6       0.034867
     90 H293        11.2370     0.5980     2.4750 h1         1 RU6       0.034867
     91 H321         5.4740    -3.8660     0.8940 hc         1 RU6       0.053033
     92 H322         6.6040    -4.2400     2.1800 hc         1 RU6       0.053033
     93 H323         5.4410    -5.4550     1.6580 hc         1 RU6       0.053033
     94 H71          4.2110    -4.1150     5.0200 hc         1 RU6       0.060700
     95 H72          5.9010    -4.1570     4.5880 hc         1 RU6       0.060700
     96 H8           5.5930    -6.4010     3.5430 hc         1 RU6       0.074700
     97 H331         6.4490    -6.1860     5.7930 hc         1 RU6       0.039700
     98 H332         4.8410    -6.0970     6.4930 hc         1 RU6       0.039700
     99 H333         5.4010    -7.5940     5.7380 hc         1 RU6       0.039700
    100 H10          2.8170    -5.8130     5.7990 hc         1 RU6       0.065700
    101 H11          1.3670    -5.0330     3.8580 h1         1 RU6       0.091700
    102 H13         -1.0950    -4.4450     4.1670 h1         1 RU6       0.074700
    103 H351         1.3240    -5.9330     7.4060 hc         1 RU6       0.056033
    104 H352         1.5360    -4.2580     6.9060 hc         1 RU6       0.056033
    105 H353         0.0620    -4.7600     7.7250 hc         1 RU6       0.056033
    106 H381         3.2600    -5.2140     0.7580 h1         1 RU6       0.037700
    107 H382         3.1140    -3.4440     0.7150 h1         1 RU6       0.037700
    108 H383         1.7670    -4.4180     1.2780 h1         1 RU6       0.037700
    109 H401        -0.1670    -8.0450     2.2470 h1         1 RU6       0.075700
    110 H402         1.2610    -7.0490     2.0950 h1         1 RU6       0.075700
    111 H411        -0.3060    -5.0040     2.0670 hc         1 RU6       0.053200
    112 H412        -1.6410    -6.1140     1.8800 hc         1 RU6       0.053200
    113 H421        -0.7060    -6.8890    -0.2980 hc         1 RU6       0.055700
    114 H422         0.7660    -5.9880    -0.0050 hc         1 RU6       0.055700
    115 H431        -0.7510    -3.8710     0.1680 h1         1 RU6       0.068700
    116 H432        -1.9990    -4.8460    -0.5790 h1         1 RU6       0.068700
    117 H44          0.8590    -2.7370    -1.2620 h5         1 RU6       0.068100
    118 H47          1.9150    -3.2680    -5.6250 ha         1 RU6       0.155000
    119 H48          2.1840    -3.8770    -8.0270 ha         1 RU6       0.138000
    120 H49          0.8450    -5.7560    -8.9430 h4         1 RU6       0.015100
    121 H50         -0.9520    -6.4370    -5.3210 h4         1 RU6       0.012100
    122 H51         -1.1810    -5.9680    -2.9850 h4         1 RU6       0.178000
    123 H341         3.1850    -8.2640     6.0420 hc         1 RU6       0.047367
    124 H342         1.5350    -7.8670     6.4650 hc         1 RU6       0.047367
    125 H343         1.8910    -8.5850     4.8940 hc         1 RU6       0.047367
    126 H361        -1.4820    -3.5190     7.0500 hc         1 RU6       0.062200
    127 H362        -2.4720    -4.6930     6.2080 hc         1 RU6       0.062200
    128 H371        -2.1820    -1.7370     5.4440 hc         1 RU6       0.037367
    129 H372        -3.1050    -2.9210     4.5150 hc         1 RU6       0.037367
    130 H373        -3.5760    -2.5170     6.1620 hc         1 RU6       0.037367
    131 H3           2.0560    -2.1510     2.3760 h1         1 RU6       0.062700
    132 H14          0.8430    -0.4340     1.1970 h2         1 RU6       0.072700
    133 H151         1.0770     1.4690    -0.1480 hc         1 RU6       0.064200
    134 H152         1.5580     2.0040     1.4390 hc         1 RU6       0.064200
    135 H201         3.3690     2.5190     2.6200 h1         1 RU6       0.031033
    136 H202         4.2910     3.7160     1.6860 h1         1 RU6       0.031033
    137 H203         5.1300     2.4450     2.5800 h1         1 RU6       0.031033
    138 H191         3.9180     3.6520    -0.9730 hc         1 RU6       0.047367
    139 H192         2.2720     3.2140    -1.4270 hc         1 RU6       0.047367
    140 H193         2.5800     3.9280     0.1470 hc         1 RU6       0.047367
    141 H17          2.7820     0.8730    -1.8930 h1         1 RU6       0.084700
    142 H18          4.4230    -0.6660     0.1650 h1         1 RU6       0.054700
    143 H211         3.9350    -2.6200    -1.2480 hc         1 RU6       0.051700
    144 H212         3.0180    -1.6250    -2.3810 hc         1 RU6       0.051700
    145 H213         4.7590    -1.3920    -2.1920 hc         1 RU6       0.051700
    146 C40          0.2270    -7.0450     2.4290 c3         1 RU6       0.120000
    147 O1          -0.4790    -2.5690     2.9370 o          1 RU6      -0.550000
    148 O12         -1.6730    -7.9580     4.4240 o          1 RU6      -0.606500
    149 O11          3.3890    -7.3110     2.9920 o          1 RU6      -0.528100
    150 C20          4.2450     2.6630     1.9810 c3         1 RU6       0.130700
@<TRIPOS>BOND
     1     1    22 1   
     2     1    26 1   
     3     2    21 1   
     4     2    22 1   
     5     3    23 1   
     6     3    65 1   
     7     4    16 1   
     8     4    39 1   
     9     5    38 1   
    10     5    40 1   
    11     6    30 1   
    12     6    42 1   
    13     7    57 1   
    14     7    58 1   
    15     8    60 1   
    16     8   150 1   
    17     9    62 1   
    18     9    66 1   
    19    10    58 1   
    20    10    63 1   
    21    11    24 1   
    22    11    28 1   
    23    11    29 1   
    24    12    37 1   
    25    12    38 1   
    26    12   146 1   
    27    13    45 1   
    28    13    46 1   
    29    13    53 1   
    30    14    46 2   
    31    14    47 1   
    32    15    51 ar  
    33    15    52 ar  
    34    16    17 1   
    35    16   147 2   
    36    17    18 1   
    37    17    57 1   
    38    17    67 1   
    39    18    68 1   
    40    18    69 1   
    41    18    70 1   
    42    19    20 1   
    43    19    21 1   
    44    19    57 1   
    45    19    71 1   
    46    20    72 1   
    47    20    73 1   
    48    20    74 1   
    49    21    30 1   
    50    21    75 1   
    51    22    23 1   
    52    22    76 1   
    53    23    24 1   
    54    23    77 1   
    55    24    25 1   
    56    24    78 1   
    57    25    26 1   
    58    25    79 1   
    59    25    80 1   
    60    26    27 1   
    61    26    81 1   
    62    27    82 1   
    63    27    83 1   
    64    27    84 1   
    65    28    85 1   
    66    28    86 1   
    67    28    87 1   
    68    29    88 1   
    69    29    89 1   
    70    29    90 1   
    71    30    31 1   
    72    30    32 1   
    73    31    91 1   
    74    31    92 1   
    75    31    93 1   
    76    32    33 1   
    77    32    94 1   
    78    32    95 1   
    79    33    34 1   
    80    33    35 1   
    81    33    96 1   
    82    34    97 1   
    83    34    98 1   
    84    34    99 1   
    85    35    36 1   
    86    35   149 2   
    87    36    37 1   
    88    36    54 1   
    89    36   100 1   
    90    37    40 1   
    91    37   101 1   
    92    38   148 2   
    93    39    40 1   
    94    39    55 1   
    95    39   102 1   
    96    40    41 1   
    97    41   103 1   
    98    41   104 1   
    99    41   105 1   
   100    42   106 1   
   101    42   107 1   
   102    42   108 1   
   103    43    44 1   
   104    43   111 1   
   105    43   112 1   
   106    43   146 1   
   107    44    45 1   
   108    44   113 1   
   109    44   114 1   
   110    45   115 1   
   111    45   116 1   
   112    46   117 1   
   113    47    48 1   
   114    47    53 2   
   115    48    49 ar  
   116    48    52 ar  
   117    49    50 ar  
   118    49   118 1   
   119    50    51 ar  
   120    50   119 1   
   121    51   120 1   
   122    52   121 1   
   123    53   122 1   
   124    54   123 1   
   125    54   124 1   
   126    54   125 1   
   127    55    56 1   
   128    55   126 1   
   129    55   127 1   
   130    56   128 1   
   131    56   129 1   
   132    56   130 1   
   133    57   131 1   
   134    58    59 1   
   135    58   132 1   
   136    59    60 1   
   137    59   133 1   
   138    59   134 1   
   139    60    61 1   
   140    60    62 1   
   141    61   138 1   
   142    61   139 1   
   143    61   140 1   
   144    62    63 1   
   145    62   141 1   
   146    63    64 1   
   147    63   142 1   
   148    64   143 1   
   149    64   144 1   
   150    64   145 1   
   151   109   146 1   
   152   110   146 1   
   153   135   150 1   
   154   136   150 1   
   155   137   150 1   
@<TRIPOS>SUBSTRUCTURE
     1 RU6         1 TEMP              0 ****  ****    0 ROOT
