@<TRIPOS>MOLECULE
RU9
   41    44     1     0     0
SMALL
abcg2


@<TRIPOS>ATOM
      1 C1          -7.3250    -0.3020    -0.1180 c          1 RU9       0.618700
      2 N1          -8.2410     0.6770    -0.0600 nt         1 RU9      -0.603000
      3 O1           4.0310    -1.3490     0.4460 os         1 RU9      -0.254200
      4 C2          -5.9000     0.1230    -0.2760 ca         1 RU9      -0.143600
      5 C3          -4.9200    -0.7950     0.0800 ca         1 RU9      -0.050000
      6 N3          -2.4140    -1.0250     0.1980 na         1 RU9      -0.304600
      7 C4          -3.6020    -0.4000    -0.0640 ca         1 RU9      -0.096200
      8 N4          -1.8730     0.9750    -0.5990 nc         1 RU9      -0.584100
      9 C5          -1.4150    -0.1640    -0.1360 cd         1 RU9       0.490400
     10 C6          -3.2350     0.8610    -0.5670 ca         1 RU9       0.093400
     11 C7          -4.2260     1.7670    -0.9410 ca         1 RU9      -0.061000
     12 C8          -5.5450     1.3870    -0.7880 ca         1 RU9      -0.112000
     13 C9           0.0000    -0.4790     0.0160 ca         1 RU9      -0.153900
     14 C10          0.9500     0.5100    -0.2380 ca         1 RU9      -0.047500
     15 C11          2.3040     0.2600    -0.0980 ca         1 RU9      -0.164500
     16 C12          2.7280    -1.0030     0.3060 ca         1 RU9       0.155100
     17 C13          1.7950    -2.0050     0.5560 ca         1 RU9      -0.164500
     18 C14          0.4460    -1.7420     0.4090 ca         1 RU9      -0.047500
     19 C15          4.9950    -0.3750     0.5320 ca         1 RU9       0.140100
     20 C16          5.0460     0.4740     1.6270 ca         1 RU9      -0.169000
     21 C17          6.0770     1.4010     1.6900 ca         1 RU9      -0.061000
     22 C18          7.0370     1.4820     0.6940 ca         1 RU9      -0.150000
     23 C19          6.9710     0.6150    -0.3960 ca         1 RU9       0.155100
     24 C20          5.9370    -0.3150    -0.4820 ca         1 RU9      -0.215000
     25 OAB         -7.6260    -1.4870    -0.0480 o          1 RU9      -0.611100
     26 OAC          7.9250     0.7150    -1.3390 oh         1 RU9      -0.529100
     27 H11N        -7.9970     1.6480     0.0180 hn         1 RU9       0.314000
     28 H12N        -9.2130     0.4410     0.0560 hn         1 RU9       0.314000
     29 H3          -5.1830    -1.7720     0.4640 ha         1 RU9       0.141000
     30 H8          -6.3130     2.0830    -1.0980 ha         1 RU9       0.110000
     31 HA          -2.3110    -1.9460     0.5930 hn         1 RU9       0.360000
     32 H7          -3.9700     2.7370    -1.3460 ha         1 RU9       0.131000
     33 H10          0.6250     1.4920    -0.5510 ha         1 RU9       0.125000
     34 H14         -0.2490    -2.5470     0.6060 ha         1 RU9       0.125000
     35 H11          3.0120     1.0500    -0.3050 ha         1 RU9       0.133500
     36 H13          2.1280    -2.9870     0.8640 ha         1 RU9       0.133500
     37 H16          4.3070     0.4100     2.4140 ha         1 RU9       0.132000
     38 H20          5.8700    -0.9960    -1.3230 ha         1 RU9       0.131000
     39 H17          6.1370     2.0720     2.5370 ha         1 RU9       0.120000
     40 H18          7.8400     2.2040     0.7590 ha         1 RU9       0.134000
     41 HAC          7.7720     0.0780    -2.0460 ho         1 RU9       0.469000
@<TRIPOS>BOND
     1     1     2 1   
     2     1     4 1   
     3     1    25 2   
     4     2    27 1   
     5     2    28 1   
     6     3    16 1   
     7     3    19 1   
     8     4     5 ar  
     9     4    12 ar  
    10     5     7 ar  
    11     5    29 1   
    12     6     7 1   
    13     6     9 1   
    14     6    31 1   
    15     7    10 ar  
    16     8     9 2   
    17     8    10 1   
    18     9    13 1   
    19    10    11 ar  
    20    11    12 ar  
    21    11    32 1   
    22    12    30 1   
    23    13    14 ar  
    24    13    18 ar  
    25    14    15 ar  
    26    14    33 1   
    27    15    16 ar  
    28    15    35 1   
    29    16    17 ar  
    30    17    18 ar  
    31    17    36 1   
    32    18    34 1   
    33    19    20 ar  
    34    19    24 ar  
    35    20    21 ar  
    36    20    37 1   
    37    21    22 ar  
    38    21    39 1   
    39    22    23 ar  
    40    22    40 1   
    41    23    24 ar  
    42    23    26 1   
    43    24    38 1   
    44    26    41 1   
@<TRIPOS>SUBSTRUCTURE
     1 RU9         1 TEMP              0 ****  ****    0 ROOT
