@<TRIPOS>MOLECULE
RU9
   41    44     1     0     0
SMALL
No Charge or Current Charge


@<TRIPOS>ATOM
      1 C1          -7.4340    -0.2900     0.2000 c          1 RU9       0.618700
      2 N1          -8.4210     0.5900    -0.0730 nt         1 RU9      -0.603000
      3 O1           4.1070    -1.2860    -0.0920 os         1 RU9      -0.254200
      4 C2          -6.0020     0.1400    -0.0420 ca         1 RU9      -0.143600
      5 C3          -4.9500    -0.7680     0.2370 ca         1 RU9      -0.050000
      6 N3          -2.4690    -1.0470     0.2000 na         1 RU9      -0.304600
      7 C4          -3.6310    -0.3540     0.0070 ca         1 RU9      -0.096200
      8 N4          -1.9540     1.0440    -0.6100 nc         1 RU9      -0.584100
      9 C5          -1.4680    -0.1450    -0.1930 cd         1 RU9       0.490400
     10 C6          -3.3200     0.8820    -0.4720 ca         1 RU9       0.093400
     11 C7          -4.3310     1.8070    -0.7600 ca         1 RU9      -0.061000
     12 C8          -5.6760     1.4340    -0.5440 ca         1 RU9      -0.112000
     13 C9          -0.0150    -0.4340    -0.1680 ca         1 RU9      -0.153900
     14 C10          0.9240     0.5410    -0.5800 ca         1 RU9      -0.047500
     15 C11          2.3020     0.2650    -0.5560 ca         1 RU9      -0.164500
     16 C12          2.7640    -0.9870    -0.1120 ca         1 RU9       0.155100
     17 C13          1.8430    -1.9650     0.2850 ca         1 RU9      -0.164500
     18 C14          0.4640    -1.6940     0.2630 ca         1 RU9      -0.047500
     19 C15          5.0720    -0.3740     0.2700 ca         1 RU9       0.140100
     20 C16          4.8560     0.5350     1.3240 ca         1 RU9      -0.169000
     21 C17          5.8630     1.4470     1.6840 ca         1 RU9      -0.061000
     22 C18          7.0880     1.4420     0.9930 ca         1 RU9      -0.150000
     23 C19          7.3060     0.5280    -0.0490 ca         1 RU9       0.155100
     24 C20          6.3010    -0.3840    -0.4090 ca         1 RU9      -0.215000
     25 OAB         -7.7290    -1.3940     0.6290 o          1 RU9      -0.611100
     26 OAC          8.4980     0.5270    -0.7080 oh         1 RU9      -0.529100
     27 H11N        -8.2000     1.5070    -0.4280 hn         1 RU9       0.314000
     28 H12N        -9.3800     0.3170     0.0840 hn         1 RU9       0.314000
     29 H3          -5.1530    -1.7660     0.6210 ha         1 RU9       0.141000
     30 H8          -6.4520     2.1600    -0.7710 ha         1 RU9       0.110000
     31 HA          -2.3410    -1.9880     0.5450 hn         1 RU9       0.360000
     32 H7          -4.0820     2.7930    -1.1420 ha         1 RU9       0.131000
     33 H10          0.5930     1.5180    -0.9250 ha         1 RU9       0.125000
     34 H14         -0.2240    -2.4730     0.5820 ha         1 RU9       0.125000
     35 H11          3.0080     1.0230    -0.8870 ha         1 RU9       0.133500
     36 H13          2.2000    -2.9370     0.6160 ha         1 RU9       0.133500
     37 H16          3.9140     0.5320     1.8670 ha         1 RU9       0.132000
     38 H20          6.4610    -1.0970    -1.2120 ha         1 RU9       0.131000
     39 H17          5.6980     2.1520     2.4960 ha         1 RU9       0.120000
     40 H18          7.8690     2.1460     1.2690 ha         1 RU9       0.134000
     41 HAC          8.4720    -0.1720    -1.3950 ho         1 RU9       0.469000
@<TRIPOS>BOND
     1     1     2 1   
     2     1     4 1   
     3     1    25 2   
     4     2    27 1   
     5     2    28 1   
     6     3    16 1   
     7     3    19 1   
     8     4     5 ar  
     9     4    12 ar  
    10     5     7 ar  
    11     5    29 1   
    12     6     7 1   
    13     6     9 1   
    14     6    31 1   
    15     7    10 ar  
    16     8     9 2   
    17     8    10 1   
    18     9    13 1   
    19    10    11 ar  
    20    11    12 ar  
    21    11    32 1   
    22    12    30 1   
    23    13    14 ar  
    24    13    18 ar  
    25    14    15 ar  
    26    14    33 1   
    27    15    16 ar  
    28    15    35 1   
    29    16    17 ar  
    30    17    18 ar  
    31    17    36 1   
    32    18    34 1   
    33    19    20 ar  
    34    19    24 ar  
    35    20    21 ar  
    36    20    37 1   
    37    21    22 ar  
    38    21    39 1   
    39    22    23 ar  
    40    22    40 1   
    41    23    24 ar  
    42    23    26 1   
    43    24    38 1   
    44    26    41 1   
@<TRIPOS>SUBSTRUCTURE
     1 RU9         1 TEMP              0 ****  ****    0 ROOT
