@<TRIPOS>MOLECULE
RUE
   42    43     1     0     0
SMALL
abcg2


@<TRIPOS>ATOM
      1 C03          8.6810    44.6760    14.3190 c          1 RUE       0.569100
      2 C05          9.6060    45.8730    14.1310 c3         1 RUE       0.108800
      3 C07          9.6460    45.7490    11.7060 c3         1 RUE       0.229600
      4 C08         10.9970    45.0810    11.6790 ca         1 RUE      -0.131300
      5 C09         11.1030    43.7010    11.5480 ca         1 RUE      -0.124000
      6 C10         12.3520    43.0950    11.4980 ca         1 RUE      -0.159000
      7 C11         13.5020    43.8640    11.5840 ca         1 RUE      -0.088500
      8 C12         13.4210    45.2490    11.7260 ca         1 RUE      -0.147600
      9 C13         12.1620    45.8390    11.7720 ca         1 RUE      -0.068500
     10 C14         14.6870    46.0960    11.8270 c          1 RUE       0.714600
     11 C17          8.2760    47.4290    12.7670 c3         1 RUE       0.229600
     12 C18          8.2230    48.4690    13.8520 ca         1 RUE      -0.131300
     13 C19          9.2230    49.4360    13.9410 ca         1 RUE      -0.124000
     14 C20          9.1720    50.4000    14.9360 ca         1 RUE      -0.159000
     15 C21          8.1300    50.4050    15.8550 ca         1 RUE      -0.088500
     16 C22          7.1250    49.4450    15.7900 ca         1 RUE      -0.147600
     17 C23          7.1910    48.4840    14.7830 ca         1 RUE      -0.068500
     18 C24          5.9840    49.4340    16.8060 c          1 RUE       0.714600
     19 N02          9.3360    43.5410    14.6250 ns         1 RUE      -0.397400
     20 N06          9.4550    46.5810    12.8800 n3         1 RUE      -0.716600
     21 O01          8.6520    42.4160    14.9700 oh         1 RUE      -0.437100
     22 O04          7.4690    44.7360    14.1950 o          1 RUE      -0.584100
     23 O15         15.7690    45.4880    11.7170 o          1 RUE      -0.726750
     24 O16         14.5280    47.3180    12.0090 o          1 RUE      -0.726750
     25 O25          6.0070    50.3270    17.6740 o          1 RUE      -0.726750
     26 O26          5.1330    48.5320    16.6810 o          1 RUE      -0.726750
     27 H052        10.6500    45.5690    14.2390 h1         1 RUE       0.082700
     28 H051         9.4100    46.5640    14.9540 h1         1 RUE       0.082700
     29 H071         9.5550    46.4000    10.8320 h1         1 RUE       0.029950
     30 H072         8.8610    44.9840    11.5920 h1         1 RUE       0.029950
     31 H091        10.2040    43.0980    11.4850 ha         1 RUE       0.093000
     32 H101        12.4250    42.0190    11.3950 ha         1 RUE       0.081000
     33 H111        14.4740    43.3900    11.5450 ha         1 RUE       0.118500
     34 H131        12.0840    46.9130    11.8850 ha         1 RUE       0.137500
     35 H172         8.3460    47.9340    11.7990 h1         1 RUE       0.029950
     36 H171         7.3360    46.8640    12.7510 h1         1 RUE       0.029950
     37 H191        10.0390    49.4340    13.2290 ha         1 RUE       0.093000
     38 H201         9.9480    51.1540    14.9960 ha         1 RUE       0.081000
     39 H211         8.0960    51.1600    16.6290 ha         1 RUE       0.118500
     40 H231         6.4190    47.7260    14.7250 ha         1 RUE       0.137500
     41 H021        10.3310    43.5060    14.7890 hn         1 RUE       0.340500
     42 H011         8.5540    41.9010    14.1570 ho         1 RUE       0.427000
@<TRIPOS>BOND
     1     1     2 1   
     2     1    19 1   
     3     1    22 2   
     4     2    20 1   
     5     2    27 1   
     6     2    28 1   
     7     3     4 1   
     8     3    20 1   
     9     3    29 1   
    10     3    30 1   
    11     4     5 ar  
    12     4     9 ar  
    13     5     6 ar  
    14     5    31 1   
    15     6     7 ar  
    16     6    32 1   
    17     7     8 ar  
    18     7    33 1   
    19     8     9 ar  
    20     8    10 1   
    21     9    34 1   
    22    10    23 1   
    23    10    24 1   
    24    11    12 1   
    25    11    20 1   
    26    11    35 1   
    27    11    36 1   
    28    12    13 ar  
    29    12    17 ar  
    30    13    14 ar  
    31    13    37 1   
    32    14    15 ar  
    33    14    38 1   
    34    15    16 ar  
    35    15    39 1   
    36    16    17 ar  
    37    16    18 1   
    38    17    40 1   
    39    18    25 1   
    40    18    26 1   
    41    19    21 1   
    42    19    41 1   
    43    21    42 1   
@<TRIPOS>SUBSTRUCTURE
     1 RUE         1 TEMP              0 ****  ****    0 ROOT
