@<TRIPOS>MOLECULE
RUE
   42    43     1     0     0
SMALL
No Charge or Current Charge


@<TRIPOS>ATOM
      1 C03          8.7730    44.7670    14.5810 c          1 RUE       0.569100
      2 C05          9.7220    45.9460    14.2130 c3         1 RUE       0.108800
      3 C07          9.7050    45.7620    11.7090 c3         1 RUE       0.229600
      4 C08         11.0580    45.0540    11.6700 ca         1 RUE      -0.131300
      5 C09         11.1240    43.6620    11.4770 ca         1 RUE      -0.124000
      6 C10         12.3680    43.0130    11.4460 ca         1 RUE      -0.159000
      7 C11         13.5540    43.7480    11.5990 ca         1 RUE      -0.088500
      8 C12         13.5140    45.1510    11.7830 ca         1 RUE      -0.147600
      9 C13         12.2520    45.7910    11.8150 ca         1 RUE      -0.068500
     10 C14         14.7970    45.9520    11.9430 c          1 RUE       0.714600
     11 C17          8.2560    47.4160    12.8170 c3         1 RUE       0.229600
     12 C18          8.1580    48.5210    13.8660 ca         1 RUE      -0.131300
     13 C19          9.0450    49.6130    13.8260 ca         1 RUE      -0.124000
     14 C20          8.9540    50.6320    14.7860 ca         1 RUE      -0.159000
     15 C21          7.9760    50.5700    15.7920 ca         1 RUE      -0.088500
     16 C22          7.0710    49.4840    15.8520 ca         1 RUE      -0.147600
     17 C23          7.1770    48.4620    14.8780 ca         1 RUE      -0.068500
     18 C24          6.0080    49.4160    16.9370 c          1 RUE       0.714600
     19 N02          9.2180    43.5060    14.1910 ns         1 RUE      -0.397400
     20 N06          9.5170    46.6400    12.8900 n3         1 RUE      -0.716600
     21 O01          8.5950    42.3010    14.6980 oh         1 RUE      -0.437100
     22 O04          7.7090    44.9280    15.1700 o          1 RUE      -0.584100
     23 O15         15.8640    45.3550    11.9590 o          1 RUE      -0.726750
     24 O16         14.7200    47.1690    12.0460 o          1 RUE      -0.726750
     25 O25          6.0190    50.2600    17.8230 o          1 RUE      -0.726750
     26 O26          5.1720    48.5250    16.8850 o          1 RUE      -0.726750
     27 H052        10.7450    45.5540    14.2740 h1         1 RUE       0.082700
     28 H051         9.6410    46.6690    15.0350 h1         1 RUE       0.082700
     29 H071         9.6150    46.3590    10.7910 h1         1 RUE       0.029950
     30 H072         8.9030    45.0110    11.6750 h1         1 RUE       0.029950
     31 H091        10.2130    43.0810    11.3480 ha         1 RUE       0.093000
     32 H101        12.4130    41.9360    11.2980 ha         1 RUE       0.081000
     33 H111        14.5070    43.2240    11.5690 ha         1 RUE       0.118500
     34 H131        12.1910    46.8680    11.9580 ha         1 RUE       0.137500
     35 H172         8.1730    47.8900    11.8290 h1         1 RUE       0.029950
     36 H171         7.3940    46.7410    12.9140 h1         1 RUE       0.029950
     37 H191         9.8060    49.6670    13.0500 ha         1 RUE       0.093000
     38 H201         9.6430    51.4720    14.7500 ha         1 RUE       0.081000
     39 H211         7.9230    51.3720    16.5250 ha         1 RUE       0.118500
     40 H231         6.4950    47.6150    14.9060 ha         1 RUE       0.137500
     41 H021        10.1590    43.4030    13.8110 hn         1 RUE       0.340500
     42 H011         8.4120    41.7750    13.8840 ho         1 RUE       0.427000
@<TRIPOS>BOND
     1     1     2 1   
     2     1    19 1   
     3     1    22 2   
     4     2    20 1   
     5     2    27 1   
     6     2    28 1   
     7     3     4 1   
     8     3    20 1   
     9     3    29 1   
    10     3    30 1   
    11     4     5 ar  
    12     4     9 ar  
    13     5     6 ar  
    14     5    31 1   
    15     6     7 ar  
    16     6    32 1   
    17     7     8 ar  
    18     7    33 1   
    19     8     9 ar  
    20     8    10 1   
    21     9    34 1   
    22    10    23 1   
    23    10    24 1   
    24    11    12 1   
    25    11    20 1   
    26    11    35 1   
    27    11    36 1   
    28    12    13 ar  
    29    12    17 ar  
    30    13    14 ar  
    31    13    37 1   
    32    14    15 ar  
    33    14    38 1   
    34    15    16 ar  
    35    15    39 1   
    36    16    17 ar  
    37    16    18 1   
    38    17    40 1   
    39    18    25 1   
    40    18    26 1   
    41    19    21 1   
    42    19    41 1   
    43    21    42 1   
@<TRIPOS>SUBSTRUCTURE
     1 RUE         1 TEMP              0 ****  ****    0 ROOT
