@<TRIPOS>MOLECULE
RUF
   48    51     1     0     0
SMALL
bcc


@<TRIPOS>ATOM
      1 C1          -3.0980    -2.6880     1.5810 c3         1 RUF       0.102300
      2 N2          -2.9190    -1.5620     0.6810 n          1 RUF      -0.425300
      3 C3          -1.6880    -1.1900     0.2320 cc         1 RUF       0.527200
      4 N4          -0.5290    -1.8100     0.5040 nc         1 RUF      -0.753000
      5 C5           0.3810    -1.1290    -0.1750 cd         1 RUF       0.685400
      6 N6           1.7190    -1.4200    -0.2000 nh         1 RUF      -0.732300
      7 C7           2.2080    -1.9670    -1.4740 c6         1 RUF       0.155300
      8 C8           3.7280    -2.0670    -1.4640 c6         1 RUF       0.145800
      9 N9           4.2640    -2.7690    -0.3120 n7         1 RUF      -0.787200
     10 C10          3.7220    -2.2240     0.9210 c6         1 RUF       0.145800
     11 C11          2.2010    -2.1860     0.9450 c6         1 RUF       0.155300
     12 N12         -0.1480    -0.0950    -0.8710 na         1 RUF      -0.148900
     13 C13          0.5880     1.0510    -1.3930 c3         1 RUF       0.099600
     14 C14          0.9160     2.0470    -0.3060 ca         1 RUF      -0.110300
     15 C15         -0.1180     2.7720     0.2880 ca         1 RUF      -0.096000
     16 C16          0.1140     3.6730     1.3120 ca         1 RUF      -0.130000
     17 C17          1.4080     3.8800     1.7660 ca         1 RUF      -0.106000
     18 C18          2.4590     3.1980     1.1790 ca         1 RUF      -0.130000
     19 C19          2.2080     2.2970     0.1520 ca         1 RUF       0.054400
     20 CL20         3.5840     1.5270    -0.5710 cl         1 RUF      -0.111400
     21 C21         -1.5130    -0.1320    -0.6190 cd         1 RUF      -0.377200
     22 C22         -2.6020     0.6090    -1.1460 c          1 RUF       0.777100
     23 O23         -2.5340     1.5190    -1.9600 o          1 RUF      -0.625500
     24 N24         -3.8290     0.1870    -0.6160 n          1 RUF      -0.505400
     25 C25         -5.0420     0.8820    -1.0300 c3         1 RUF       0.085300
     26 C26         -4.0250    -0.8650     0.2670 c          1 RUF       0.823500
     27 O27         -5.1390    -1.1640     0.6540 o          1 RUF      -0.629500
     28 H1          -3.5310    -2.3620     2.5250 h1         1 RUF       0.058700
     29 H1A         -3.7430    -3.4410     1.1330 h1         1 RUF       0.058700
     30 H1B         -2.1260    -3.1290     1.7740 h1         1 RUF       0.058700
     31 H7           1.7740    -2.9620    -1.6430 h1         1 RUF       0.050700
     32 H7A          1.8900    -1.3330    -2.3020 h1         1 RUF       0.050700
     33 H8           4.0500    -2.5730    -2.3760 h1         1 RUF       0.064200
     34 H8A          4.1530    -1.0630    -1.4880 h1         1 RUF       0.064200
     35 HN9          4.0200    -3.7510    -0.3750 hn         1 RUF       0.349800
     36 H10          4.0780    -2.8180     1.7640 h1         1 RUF       0.064200
     37 H10A         4.1070    -1.2090     1.0540 h1         1 RUF       0.064200
     38 H11          1.8520    -1.7120     1.8630 h1         1 RUF       0.050700
     39 H11A         1.8120    -3.2140     0.9320 h1         1 RUF       0.050700
     40 H13          1.4850     0.6980    -1.8930 h1         1 RUF       0.088700
     41 H13A        -0.0340     1.5190    -2.1530 h1         1 RUF       0.088700
     42 H15         -1.1290     2.6430    -0.0760 ha         1 RUF       0.148000
     43 H16         -0.7130     4.2190     1.7460 ha         1 RUF       0.140000
     44 H17          1.6050     4.5800     2.5680 ha         1 RUF       0.138000
     45 H18          3.4740     3.3660     1.5130 ha         1 RUF       0.148000
     46 H25         -5.7080     0.2090    -1.5660 h1         1 RUF       0.057700
     47 H25A        -5.5650     1.2840    -0.1660 h1         1 RUF       0.057700
     48 H25B        -4.7700     1.7000    -1.6850 h1         1 RUF       0.057700
@<TRIPOS>BOND
     1     1     2 1   
     2     1    28 1   
     3     1    29 1   
     4     1    30 1   
     5     2     3 1   
     6     2    26 1   
     7     3     4 1   
     8     3    21 2   
     9     4     5 2   
    10     5     6 1   
    11     5    12 1   
    12     6     7 1   
    13     6    11 1   
    14     7     8 1   
    15     7    31 1   
    16     7    32 1   
    17     8     9 1   
    18     8    33 1   
    19     8    34 1   
    20     9    10 1   
    21     9    35 1   
    22    10    11 1   
    23    10    36 1   
    24    10    37 1   
    25    11    38 1   
    26    11    39 1   
    27    12    13 1   
    28    12    21 1   
    29    13    14 1   
    30    13    40 1   
    31    13    41 1   
    32    14    15 ar  
    33    14    19 ar  
    34    15    16 ar  
    35    15    42 1   
    36    16    17 ar  
    37    16    43 1   
    38    17    18 ar  
    39    17    44 1   
    40    18    19 ar  
    41    18    45 1   
    42    19    20 1   
    43    21    22 1   
    44    22    23 2   
    45    22    24 1   
    46    24    25 1   
    47    24    26 1   
    48    25    46 1   
    49    25    47 1   
    50    25    48 1   
    51    26    27 2   
@<TRIPOS>SUBSTRUCTURE
     1 RUF         1 TEMP              0 ****  ****    0 ROOT
