@<TRIPOS>MOLECULE
RUF
   48    51     1     0     0
SMALL
No Charge or Current Charge


@<TRIPOS>ATOM
      1 C1          -3.4580    -3.0490     1.1430 c3         1 RUF       0.102300
      2 N2          -3.2970    -1.8130     0.3350 n          1 RUF      -0.358300
      3 C3          -2.0560    -1.3220     0.0090 cc         1 RUF       0.461900
      4 N4          -0.8740    -1.8830     0.3790 nc         1 RUF      -0.753000
      5 C5           0.0330    -1.0960    -0.1560 cd         1 RUF       0.685400
      6 N6           1.3970    -1.2900     0.0470 nh         1 RUF      -0.732300
      7 C7           2.3100    -1.4990    -1.1170 c6         1 RUF       0.155300
      8 C8           3.7940    -1.1550    -0.7670 c6         1 RUF       0.145800
      9 N9           4.2730    -1.8590     0.4590 n7         1 RUF      -0.842400
     10 C10          3.3640    -1.5880     1.6110 c6         1 RUF       0.145800
     11 C11          1.8760    -1.9480     1.2980 c6         1 RUF       0.155300
     12 N12         -0.5210    -0.0040    -0.8170 na         1 RUF      -0.127500
     13 C13          0.2000     1.1500    -1.3980 c3         1 RUF       0.128900
     14 C14          1.1870     1.8290    -0.4400 ca         1 RUF      -0.110300
     15 C15          0.8470     1.9890     0.9220 ca         1 RUF      -0.078000
     16 C16          1.7450     2.5910     1.8190 ca         1 RUF      -0.112000
     17 C17          2.9910     3.0500     1.3660 ca         1 RUF      -0.088000
     18 C18          3.3350     2.9110     0.0120 ca         1 RUF      -0.112000
     19 C19          2.4410     2.3080    -0.8900 ca         1 RUF       0.146000
     20 Cl20         2.9340     2.1680    -2.5780 cl         1 RUF      -0.203000
     21 C21         -1.9000    -0.1880    -0.7150 cd         1 RUF      -0.362600
     22 C22         -3.0480     0.5840    -1.2020 c          1 RUF       0.634600
     23 O23         -2.9300     1.6110    -1.8530 o          1 RUF      -0.550000
     24 N24         -4.2910     0.0400    -0.8510 n          1 RUF      -0.371400
     25 C25         -5.5200     0.7530    -1.2950 c3         1 RUF       0.085300
     26 C26         -4.4500    -1.1260    -0.0790 c          1 RUF       0.614000
     27 O27         -5.5630    -1.5320     0.2280 o          1 RUF      -0.554000
     28 H1          -3.7190    -2.7810     2.1750 h1         1 RUF       0.058700
     29 H1A         -4.2550    -3.6750     0.7230 h1         1 RUF       0.058700
     30 H1B         -2.5350    -3.6410     1.1530 h1         1 RUF       0.058700
     31 H7           2.2570    -2.5500    -1.4360 h1         1 RUF       0.050700
     32 H7A          2.0000    -0.8940    -1.9790 h1         1 RUF       0.050700
     33 H8           4.4380    -1.4110    -1.6220 h1         1 RUF       0.064200
     34 H8A          3.8780    -0.0690    -0.6130 h1         1 RUF       0.064200
     35 HN9          4.2540    -2.8700     0.2720 hn         1 RUF       0.405000
     36 H10          3.6980    -2.1560     2.4930 h1         1 RUF       0.064200
     37 H10A         3.4170    -0.5200     1.8720 h1         1 RUF       0.064200
     38 H11          1.2560    -1.6420     2.1530 h1         1 RUF       0.050700
     39 H11A         1.7820    -3.0400     1.2040 h1         1 RUF       0.050700
     40 H13          0.7050     0.8000    -2.3030 h1         1 RUF       0.088700
     41 H13A        -0.5230     1.9070    -1.7190 h1         1 RUF       0.088700
     42 H15         -0.1160     1.6420     1.2930 ha         1 RUF       0.130000
     43 H16          1.4730     2.7030     2.8660 ha         1 RUF       0.122000
     44 H17          3.6870     3.5170     2.0600 ha         1 RUF       0.120000
     45 H18          4.2970     3.2710    -0.3420 ha         1 RUF       0.130000
     46 H25         -6.3100     0.0370    -1.5530 h1         1 RUF       0.057700
     47 H25A        -5.8790     1.4040    -0.4880 h1         1 RUF       0.057700
     48 H25B        -5.3280     1.3640    -2.1860 h1         1 RUF       0.057700
@<TRIPOS>BOND
     1     1     2 1   
     2     1    28 1   
     3     1    29 1   
     4     1    30 1   
     5     2     3 1   
     6     2    26 1   
     7     3     4 1   
     8     3    21 2   
     9     4     5 2   
    10     5     6 1   
    11     5    12 1   
    12     6     7 1   
    13     6    11 1   
    14     7     8 1   
    15     7    31 1   
    16     7    32 1   
    17     8     9 1   
    18     8    33 1   
    19     8    34 1   
    20     9    10 1   
    21     9    35 1   
    22    10    11 1   
    23    10    36 1   
    24    10    37 1   
    25    11    38 1   
    26    11    39 1   
    27    12    13 1   
    28    12    21 1   
    29    13    14 1   
    30    13    40 1   
    31    13    41 1   
    32    14    15 ar  
    33    14    19 ar  
    34    15    16 ar  
    35    15    42 1   
    36    16    17 ar  
    37    16    43 1   
    38    17    18 ar  
    39    17    44 1   
    40    18    19 ar  
    41    18    45 1   
    42    19    20 1   
    43    21    22 1   
    44    22    23 2   
    45    22    24 1   
    46    24    25 1   
    47    24    26 1   
    48    25    46 1   
    49    25    47 1   
    50    25    48 1   
    51    26    27 2   
@<TRIPOS>SUBSTRUCTURE
     1 RUF         1 TEMP              0 ****  ****    0 ROOT
