@<TRIPOS>MOLECULE
RUG
   33    34     1     0     0
SMALL
No Charge or Current Charge


@<TRIPOS>ATOM
      1 O2           0.1650     2.6790    -0.4720 oh         1 RUG      -0.717000
      2 C2           0.8090     1.5060     0.0890 c6         1 RUG       0.102300
      3 C3           2.2920     1.4560    -0.3800 c6         1 RUG       0.113300
      4 O3           2.9840     2.6500     0.0240 oh         1 RUG      -0.663000
      5 C4           3.0040     0.1920     0.1830 c6         1 RUG       0.143300
      6 O4           4.3620     0.1580    -0.2910 oh         1 RUG      -0.716000
      7 C5           2.2000    -1.0820    -0.2300 c6         1 RUG       0.176300
      8 C6           2.8070    -2.3930     0.3680 c3         1 RUG       0.172600
      9 O6           2.0430    -3.5750     0.0470 oh         1 RUG      -0.712000
     10 O5           0.8280    -0.9630     0.2310 os         1 RUG      -0.433000
     11 C1           0.1080     0.1660    -0.3270 c6         1 RUG       0.316300
     12 N1          -1.2990     0.0950     0.1420 na         1 RUG       0.121800
     13 C7          -2.3810    -0.2270    -0.6440 cc         1 RUG      -0.153000
     14 N2          -1.6880     0.3480     1.4290 nc         1 RUG      -0.197800
     15 N3          -2.9850     0.1980     1.4710 nd         1 RUG      -0.361000
     16 C8          -3.4410    -0.1540     0.2160 cd         1 RUG       0.190300
     17 C9          -4.9050    -0.4120    -0.0810 c3         1 RUG       0.148300
     18 O9          -5.3310     0.2050    -1.3100 oh         1 RUG      -0.665000
     19 HO2         -0.6770     2.8270     0.0240 ho         1 RUG       0.523000
     20 H2           0.8050     1.5620     1.1890 h1         1 RUG       0.086700
     21 H3           2.2930     1.3870    -1.4790 h1         1 RUG       0.054700
     22 HO3          2.3420     3.3810    -0.1370 ho         1 RUG       0.460000
     23 H4           2.9970     0.2550     1.2830 h1         1 RUG       0.061700
     24 HO4          4.6580     1.1020    -0.2650 ho         1 RUG       0.526000
     25 H5           2.1990    -1.1740    -1.3260 h1         1 RUG       0.063700
     26 H6           3.8340    -2.4990    -0.0090 h1         1 RUG       0.041200
     27 H6A          2.8730    -2.2710     1.4580 h1         1 RUG       0.041200
     28 HO6          2.4700    -4.3310     0.5150 ho         1 RUG       0.508000
     29 H1           0.0770     0.0840    -1.4230 h2         1 RUG       0.066700
     30 H7          -2.3210    -0.4680    -1.6960 h4         1 RUG       0.179000
     31 H9          -5.0580    -1.4980    -0.1300 h1         1 RUG       0.038200
     32 H9A         -5.5060    -0.0350     0.7580 h1         1 RUG       0.038200
     33 HO9         -6.2860    -0.0020    -1.4200 ho         1 RUG       0.449000
@<TRIPOS>BOND
     1     1     2 1   
     2     1    19 1   
     3     2     3 1   
     4     2    11 1   
     5     2    20 1   
     6     3     4 1   
     7     3     5 1   
     8     3    21 1   
     9     4    22 1   
    10     5     6 1   
    11     5     7 1   
    12     5    23 1   
    13     6    24 1   
    14     7     8 1   
    15     7    10 1   
    16     7    25 1   
    17     8     9 1   
    18     8    26 1   
    19     8    27 1   
    20     9    28 1   
    21    10    11 1   
    22    11    12 1   
    23    11    29 1   
    24    12    13 1   
    25    12    14 1   
    26    13    16 2   
    27    13    30 1   
    28    14    15 2   
    29    15    16 1   
    30    16    17 1   
    31    17    18 1   
    32    17    31 1   
    33    17    32 1   
    34    18    33 1   
@<TRIPOS>SUBSTRUCTURE
     1 RUG         1 TEMP              0 ****  ****    0 ROOT
