@<TRIPOS>MOLECULE
RUG
   33    34     1     0     0
SMALL
bcc


@<TRIPOS>ATOM
      1 O2           0.0270     2.5180    -0.5030 oh         1 RUG      -0.594800
      2 C2           0.7230     1.4620     0.1090 c6         1 RUG       0.079100
      3 C3           2.1880     1.4560    -0.3170 c6         1 RUG       0.090100
      4 O3           2.8720     2.5840     0.1740 oh         1 RUG      -0.600800
      5 C4           2.8970     0.2130     0.2110 c6         1 RUG       0.120100
      6 O4           4.2040     0.1160    -0.2960 oh         1 RUG      -0.593800
      7 C5           2.1240    -1.0310    -0.2290 c6         1 RUG       0.153100
      8 C6           2.7100    -2.3070     0.3360 c3         1 RUG       0.149400
      9 O6           2.0230    -3.4020    -0.2210 oh         1 RUG      -0.589800
     10 O5           0.7850    -0.9390     0.2280 os         1 RUG      -0.386600
     11 C1           0.0940     0.1390    -0.3260 c6         1 RUG       0.263800
     12 N1          -1.2790     0.0450     0.1010 na         1 RUG       0.100400
     13 C7          -2.3690    -0.1980    -0.6530 cc         1 RUG      -0.185600
     14 N2          -1.6090     0.2420     1.3640 nc         1 RUG      -0.197800
     15 N3          -2.8870     0.1290     1.4590 nd         1 RUG      -0.361000
     16 C8          -3.4040    -0.1420     0.2400 cd         1 RUG       0.255600
     17 C9          -4.8630    -0.3340     0.0100 c3         1 RUG       0.125100
     18 O9          -5.0710    -0.4160    -1.3770 oh         1 RUG      -0.602800
     19 HO2         -0.1970     3.1730     0.1620 ho         1 RUG       0.424000
     20 H2           0.6720     1.5260     1.2030 h1         1 RUG       0.086700
     21 H3           2.2280     1.4250    -1.4170 h1         1 RUG       0.054700
     22 HO3          2.6510     3.3410    -0.3760 ho         1 RUG       0.421000
     23 H4           2.8970     0.2500     1.3120 h1         1 RUG       0.061700
     24 HO4          4.6960     0.8890    -0.0000 ho         1 RUG       0.427000
     25 H5           2.1440    -1.0890    -1.3290 h1         1 RUG       0.063700
     26 H6           3.7780    -2.3330     0.0950 h1         1 RUG       0.041200
     27 H6A          2.6270    -2.2840     1.4310 h1         1 RUG       0.041200
     28 HO6          2.4470    -4.2070     0.0870 ho         1 RUG       0.409000
     29 H1           0.0810     0.0850    -1.4230 h2         1 RUG       0.066700
     30 H7          -2.3160    -0.3810    -1.7120 h4         1 RUG       0.197000
     31 H9          -5.1940    -1.2430     0.5290 h1         1 RUG       0.038200
     32 H9A         -5.4120     0.5000     0.4640 h1         1 RUG       0.038200
     33 HO9         -5.9980    -0.6200    -1.5300 ho         1 RUG       0.410000
@<TRIPOS>BOND
     1     1     2 1   
     2     1    19 1   
     3     2     3 1   
     4     2    11 1   
     5     2    20 1   
     6     3     4 1   
     7     3     5 1   
     8     3    21 1   
     9     4    22 1   
    10     5     6 1   
    11     5     7 1   
    12     5    23 1   
    13     6    24 1   
    14     7     8 1   
    15     7    10 1   
    16     7    25 1   
    17     8     9 1   
    18     8    26 1   
    19     8    27 1   
    20     9    28 1   
    21    10    11 1   
    22    11    12 1   
    23    11    29 1   
    24    12    13 1   
    25    12    14 1   
    26    13    16 2   
    27    13    30 1   
    28    14    15 2   
    29    15    16 1   
    30    16    17 1   
    31    17    18 1   
    32    17    31 1   
    33    17    32 1   
    34    18    33 1   
@<TRIPOS>SUBSTRUCTURE
     1 RUG         1 TEMP              0 ****  ****    0 ROOT
