@<TRIPOS>MOLECULE
RUJ
   27    26     1     0     0
SMALL
No Charge or Current Charge


@<TRIPOS>ATOM
      1 O4           3.1930     0.9930     1.0070 o          1 RUJ      -0.702500
      2 C5           2.8730     0.1840     0.1500 c          1 RUJ       0.723000
      3 O7           3.4470     0.0660    -0.9230 o          1 RUJ      -0.702500
      4 C6           1.6390    -0.6820     0.4020 c3         1 RUJ      -0.216400
      5 C3           0.3960     0.0670    -0.1220 c3         1 RUJ       0.133800
      6 N2          -0.9110    -0.5680     0.2450 n3         1 RUJ      -0.471400
      7 C21         -1.0700    -1.9370    -0.3370 c3         1 RUJ       0.091100
      8 N1          -2.0840     0.3110     0.0080 n4         1 RUJ      -0.314000
      9 C8          -2.2330     0.6550    -1.4850 c3         1 RUJ       0.075900
     10 C9          -3.3720    -0.3740     0.5010 c3         1 RUJ       0.075900
     11 C10         -1.9460     1.6090     0.8220 c3         1 RUJ       0.075900
     12 H61C         1.7170    -1.6140    -0.1680 hc         1 RUJ       0.040200
     13 H62C         1.4800    -0.8220     1.4780 hc         1 RUJ       0.040200
     14 H31C         0.4560     1.0800     0.2890 h1         1 RUJ       0.064700
     15 H32C         0.4790     0.1630    -1.2130 h1         1 RUJ       0.064700
     16 H211        -0.2310    -2.5860    -0.0590 h1         1 RUJ       0.068700
     17 H212        -1.9710    -2.4380     0.0330 h1         1 RUJ       0.068700
     18 H213        -1.1190    -1.9000    -1.4320 h1         1 RUJ       0.068700
     19 H81C        -2.3630    -0.2660    -2.0550 hx         1 RUJ       0.090256
     20 H82C        -3.1060     1.2960    -1.6180 hx         1 RUJ       0.090256
     21 H83C        -1.3380     1.1790    -1.8250 hx         1 RUJ       0.090256
     22 H91C        -3.2360    -0.6760     1.5400 hx         1 RUJ       0.090256
     23 H92C        -4.2030     0.3300     0.4250 hx         1 RUJ       0.090256
     24 H93C        -3.5800    -1.2480    -0.1180 hx         1 RUJ       0.090256
     25 H101        -1.1180     2.2020     0.4310 hx         1 RUJ       0.090256
     26 H102        -2.8710     2.1830     0.7390 hx         1 RUJ       0.090256
     27 H103        -1.7610     1.3530     1.8660 hx         1 RUJ       0.090256
@<TRIPOS>BOND
     1     1     2 1   
     2     2     3 1   
     3     2     4 1   
     4     4     5 1   
     5     4    12 1   
     6     4    13 1   
     7     5     6 1   
     8     5    14 1   
     9     5    15 1   
    10     6     7 1   
    11     6     8 1   
    12     7    16 1   
    13     7    17 1   
    14     7    18 1   
    15     8     9 1   
    16     8    10 1   
    17     8    11 1   
    18     9    19 1   
    19     9    20 1   
    20     9    21 1   
    21    10    22 1   
    22    10    23 1   
    23    10    24 1   
    24    11    25 1   
    25    11    26 1   
    26    11    27 1   
@<TRIPOS>SUBSTRUCTURE
     1 RUJ         1 TEMP              0 ****  ****    0 ROOT
