@<TRIPOS>MOLECULE
RUJ
   27    26     1     0     0
SMALL
bcc


@<TRIPOS>ATOM
      1 O4           2.8530     1.0640    -0.7490 o          1 RUJ      -0.807800
      2 C5           2.8850     0.0970     0.0370 c          1 RUJ       0.933600
      3 O7           3.8980    -0.4130     0.5530 o          1 RUJ      -0.807800
      4 C6           1.5390    -0.5420     0.4350 c3         1 RUJ      -0.216400
      5 C3           0.3470     0.0320    -0.3110 c3         1 RUJ       0.133800
      6 N2          -0.9030    -0.5830     0.1720 n3         1 RUJ      -0.471400
      7 C21         -1.1210    -1.8700    -0.4760 c3         1 RUJ       0.091100
      8 N1          -2.0520     0.3100     0.0420 n4         1 RUJ      -0.398600
      9 C8          -2.2110     0.9030    -1.3190 c3         1 RUJ       0.104100
     10 C9          -3.3000    -0.4330     0.3860 c3         1 RUJ       0.104100
     11 C10         -1.9090     1.3940     1.0590 c3         1 RUJ       0.104100
     12 H61C         1.6190    -1.6220     0.2880 hc         1 RUJ       0.040200
     13 H62C         1.3910    -0.3990     1.5100 hc         1 RUJ       0.040200
     14 H31C         0.3340     1.1040    -0.1340 h1         1 RUJ       0.064700
     15 H32C         0.4590    -0.1080    -1.3920 h1         1 RUJ       0.064700
     16 H211        -0.1860    -2.4200    -0.4020 h1         1 RUJ       0.068700
     17 H212        -1.8690    -2.4660     0.0400 h1         1 RUJ       0.068700
     18 H213        -1.3740    -1.8020    -1.5390 h1         1 RUJ       0.068700
     19 H81C        -2.2890     0.1070    -2.0540 hx         1 RUJ       0.090256
     20 H82C        -3.1200     1.4970    -1.3310 hx         1 RUJ       0.090256
     21 H83C        -1.3630     1.5430    -1.5460 hx         1 RUJ       0.090256
     22 H91C        -3.1570    -0.9460     1.3330 hx         1 RUJ       0.090256
     23 H92C        -4.1040     0.2900     0.4770 hx         1 RUJ       0.090256
     24 H93C        -3.5490    -1.1350    -0.4010 hx         1 RUJ       0.090256
     25 H101        -1.0320     1.9980     0.8580 hx         1 RUJ       0.090256
     26 H102        -2.7880     2.0280     1.0060 hx         1 RUJ       0.090256
     27 H103        -1.8300     0.9350     2.0390 hx         1 RUJ       0.090256
@<TRIPOS>BOND
     1     1     2 1   
     2     2     3 1   
     3     2     4 1   
     4     4     5 1   
     5     4    12 1   
     6     4    13 1   
     7     5     6 1   
     8     5    14 1   
     9     5    15 1   
    10     6     7 1   
    11     6     8 1   
    12     7    16 1   
    13     7    17 1   
    14     7    18 1   
    15     8     9 1   
    16     8    10 1   
    17     8    11 1   
    18     9    19 1   
    19     9    20 1   
    20     9    21 1   
    21    10    22 1   
    22    10    23 1   
    23    10    24 1   
    24    11    25 1   
    25    11    26 1   
    26    11    27 1   
@<TRIPOS>SUBSTRUCTURE
     1 RUJ         1 TEMP              0 ****  ****    0 ROOT
