@<TRIPOS>MOLECULE
RUM
   42    44     1     0     0
SMALL
bcc


@<TRIPOS>ATOM
      1 N17         -0.9450    -1.4520     2.4810 n1         1 RUM      -0.361800
      2 C16         -0.2450    -2.0200     1.7630 cg         1 RUM       0.230800
      3 C15          0.6200    -2.7490     0.8920 ca         1 RUM      -0.005000
      4 C14          1.5120    -3.6600     1.4590 ca         1 RUM      -0.092000
      5 C13          2.3380    -4.4100     0.6410 ca         1 RUM      -0.123000
      6 C12          2.2710    -4.2490    -0.7360 ca         1 RUM      -0.106000
      7 C11          1.3920    -3.3320    -1.2930 ca         1 RUM      -0.098000
      8 C10          0.5550    -2.5670    -0.4940 ca         1 RUM      -0.062300
      9 C9          -0.4350    -1.6190    -1.1190 c3         1 RUM       0.138300
     10 N2          -0.2780    -0.2430    -0.6350 n          1 RUM      -0.410300
     11 C3          -1.2970     0.4520    -0.0330 cc         1 RUM       0.733800
     12 N4          -1.0650     1.4930     0.7220 nd         1 RUM      -0.697300
     13 C5           0.1950     1.9390     0.8330 cd         1 RUM       0.211600
     14 C6           1.2240     1.4380     0.1010 cc         1 RUM      -0.277500
     15 BR7          2.9480     2.1620     0.1600 br         1 RUM      -0.039700
     16 C1           1.0160     0.2910    -0.7370 c          1 RUM       0.725700
     17 O8           1.8490    -0.2490    -1.4390 o          1 RUM      -0.593500
     18 N18         -2.5650     0.0040    -0.2030 nh         1 RUM      -0.745600
     19 C23         -3.5720     0.4030     0.7690 c6         1 RUM       0.221800
     20 C22         -4.3190     1.6740     0.3730 c6         1 RUM       0.127500
     21 N24         -5.2940     1.9770     1.4070 n8         1 RUM      -0.871800
     22 C21         -4.8980     1.5050    -1.0320 c6         1 RUM      -0.114400
     23 C20         -3.8260     1.0720    -2.0250 c6         1 RUM      -0.102400
     24 C19         -3.1090    -0.1870    -1.5520 c6         1 RUM       0.208800
     25 H14          1.5460    -3.7810     2.5330 ha         1 RUM       0.145000
     26 H13          3.0280    -5.1190     1.0780 ha         1 RUM       0.139000
     27 H12          2.9140    -4.8320    -1.3810 ha         1 RUM       0.138000
     28 H11          1.3590    -3.2030    -2.3670 ha         1 RUM       0.142000
     29 H9          -0.3460    -1.6530    -2.2040 h1         1 RUM       0.071200
     30 H9A         -1.4400    -1.9500    -0.8630 h1         1 RUM       0.071200
     31 H5           0.3460     2.7710     1.5120 h4         1 RUM       0.173000
     32 H23         -4.2870    -0.4260     0.8430 h1         1 RUM       0.074700
     33 H23A        -3.1070     0.5160     1.7460 h1         1 RUM       0.074700
     34 H22         -3.5930     2.4940     0.3570 h1         1 RUM       0.084700
     35 HN24        -5.7410     2.8620     1.2000 hn         1 RUM       0.337800
     36 HN2A        -6.0360     1.2860     1.3900 hn         1 RUM       0.337800
     37 H21         -5.6910     0.7490    -0.9990 hc         1 RUM       0.042200
     38 H21A        -5.3630     2.4380    -1.3600 hc         1 RUM       0.042200
     39 H20         -4.2650     0.8770    -3.0060 hc         1 RUM       0.053700
     40 H20A        -3.0910     1.8710    -2.1590 hc         1 RUM       0.053700
     41 H19         -2.3170    -0.4390    -2.2540 h1         1 RUM       0.058200
     42 H19A        -3.7990    -1.0340    -1.5240 h1         1 RUM       0.058200
@<TRIPOS>BOND
     1     1     2 3   
     2     2     3 1   
     3     3     4 ar  
     4     3     8 ar  
     5     4     5 ar  
     6     4    25 1   
     7     5     6 ar  
     8     5    26 1   
     9     6     7 ar  
    10     6    27 1   
    11     7     8 ar  
    12     7    28 1   
    13     8     9 1   
    14     9    10 1   
    15     9    29 1   
    16     9    30 1   
    17    10    11 1   
    18    10    16 1   
    19    11    12 2   
    20    11    18 1   
    21    12    13 1   
    22    13    14 2   
    23    13    31 1   
    24    14    15 1   
    25    14    16 1   
    26    16    17 2   
    27    18    19 1   
    28    18    24 1   
    29    19    20 1   
    30    19    32 1   
    31    19    33 1   
    32    20    21 1   
    33    20    22 1   
    34    20    34 1   
    35    21    35 1   
    36    21    36 1   
    37    22    23 1   
    38    22    37 1   
    39    22    38 1   
    40    23    24 1   
    41    23    39 1   
    42    23    40 1   
    43    24    41 1   
    44    24    42 1   
@<TRIPOS>SUBSTRUCTURE
     1 RUM         1 TEMP              0 ****  ****    0 ROOT
