@<TRIPOS>MOLECULE
RUM
   42    44     1     0     0
SMALL
No Charge or Current Charge


@<TRIPOS>ATOM
      1 N17         -1.2490    -1.6930     2.5320 n1         1 RUM      -0.451000
      2 C16         -0.4950    -2.2410     1.8300 cg         1 RUM       0.320000
      3 C15          0.4470    -2.9310     0.9870 ca         1 RUM      -0.005000
      4 C14          1.2870    -3.8980     1.5760 ca         1 RUM      -0.074000
      5 C13          2.2170    -4.6060     0.7980 ca         1 RUM      -0.105000
      6 C12          2.3120    -4.3530    -0.5780 ca         1 RUM      -0.088000
      7 C11          1.4800    -3.3920    -1.1750 ca         1 RUM      -0.080000
      8 C10          0.5450    -2.6680    -0.4050 ca         1 RUM      -0.062300
      9 C9          -0.3430    -1.6320    -1.1100 c3         1 RUM       0.138300
     10 N2          -0.1270    -0.2130    -0.6870 n          1 RUM      -0.343300
     11 C3          -1.1370     0.5970    -0.1890 cc         1 RUM       0.733800
     12 N4          -0.9930     1.7910     0.3710 nd         1 RUM      -0.697300
     13 C5           0.2930     2.3260     0.4100 cd         1 RUM       0.161600
     14 C6           1.3190     1.6270    -0.1800 cc         1 RUM      -0.277500
     15 Br7          3.0720     2.3440    -0.2260 br         1 RUM      -0.039700
     16 C1           1.1560     0.3040    -0.7860 c          1 RUM       0.583200
     17 O8           2.0770    -0.2950    -1.3260 o          1 RUM      -0.518000
     18 N18         -2.4250     0.1380    -0.3390 nh         1 RUM      -0.745600
     19 C23         -3.4260     0.3000     0.7600 c6         1 RUM       0.221800
     20 C22         -4.3580     1.5400     0.5350 c6         1 RUM       0.127500
     21 N24         -5.4200     1.6560     1.5700 n8         1 RUM      -0.982200
     22 C21         -5.0060     1.4910    -0.8690 c6         1 RUM      -0.114400
     23 C20         -3.9170     1.3300    -1.9580 c6         1 RUM      -0.102400
     24 C19         -3.0350     0.0840    -1.6950 c6         1 RUM       0.208800
     25 H14          1.2190    -4.1040     2.6430 ha         1 RUM       0.127000
     26 H13          2.8610    -5.3500     1.2620 ha         1 RUM       0.121000
     27 H12          3.0310    -4.9010    -1.1830 ha         1 RUM       0.120000
     28 H11          1.5690    -3.2060    -2.2430 ha         1 RUM       0.124000
     29 H9          -0.1770    -1.6870    -2.1930 h1         1 RUM       0.071200
     30 H9A         -1.3800    -1.9460    -0.9460 h1         1 RUM       0.071200
     31 H5           0.4300     3.3030     0.8740 h4         1 RUM       0.223000
     32 H23         -4.0450    -0.6060     0.8260 h1         1 RUM       0.074700
     33 H23A        -2.9220     0.4060     1.7310 h1         1 RUM       0.074700
     34 H22         -3.7290     2.4430     0.5990 h1         1 RUM       0.084700
     35 HN24        -5.9700     2.5030     1.3830 hn         1 RUM       0.393000
     36 HN2A        -6.0990     0.8990     1.4350 hn         1 RUM       0.393000
     37 H21         -5.7140     0.6520    -0.9320 hc         1 RUM       0.042200
     38 H21A        -5.5820     2.4080    -1.0560 hc         1 RUM       0.042200
     39 H20         -4.3860     1.2470    -2.9480 hc         1 RUM       0.053700
     40 H20A        -3.2830     2.2270    -1.9860 hc         1 RUM       0.053700
     41 H19         -2.2580     0.0290    -2.4720 h1         1 RUM       0.058200
     42 H19A        -3.6500    -0.8230    -1.7920 h1         1 RUM       0.058200
@<TRIPOS>BOND
     1     1     2 3   
     2     2     3 1   
     3     3     4 ar  
     4     3     8 ar  
     5     4     5 ar  
     6     4    25 1   
     7     5     6 ar  
     8     5    26 1   
     9     6     7 ar  
    10     6    27 1   
    11     7     8 ar  
    12     7    28 1   
    13     8     9 1   
    14     9    10 1   
    15     9    29 1   
    16     9    30 1   
    17    10    11 1   
    18    10    16 1   
    19    11    12 2   
    20    11    18 1   
    21    12    13 1   
    22    13    14 2   
    23    13    31 1   
    24    14    15 1   
    25    14    16 1   
    26    16    17 2   
    27    18    19 1   
    28    18    24 1   
    29    19    20 1   
    30    19    32 1   
    31    19    33 1   
    32    20    21 1   
    33    20    22 1   
    34    20    34 1   
    35    21    35 1   
    36    21    36 1   
    37    22    23 1   
    38    22    37 1   
    39    22    38 1   
    40    23    24 1   
    41    23    39 1   
    42    23    40 1   
    43    24    41 1   
    44    24    42 1   
@<TRIPOS>SUBSTRUCTURE
     1 RUM         1 TEMP              0 ****  ****    0 ROOT
