@<TRIPOS>MOLECULE
RUN
   93    96     1     0     0
SMALL
abcg2


@<TRIPOS>ATOM
      1 C1          -1.8880    -0.2430     7.2700 c          1 RUN       0.617700
      2 O1          -1.5020    -1.3180     7.6950 o          1 RUN      -0.541100
      3 C2D         -2.8480     0.6380     8.0390 c3         1 RUN      -0.147700
      4 C3          -3.7710    -0.1760     8.9350 c3         1 RUN      -0.083100
      5 C4D         -2.0260     1.6470     8.8520 c3         1 RUN      -0.083100
      6 N1          -0.3710    -0.3450     5.3180 na         1 RUN      -0.240500
      7 C2          -0.0980     0.3840     4.2320 cc         1 RUN       0.423800
      8 N3          -0.8870     1.4430     4.1610 nd         1 RUN      -0.694000
      9 C4          -1.6790     1.3860     5.2550 cd         1 RUN       0.292900
     10 C5          -1.3790     0.2750     6.0110 cc         1 RUN      -0.311600
     11 C8           1.0280     0.0820     3.3000 c3         1 RUN      -0.080000
     12 C14          0.5900     0.1570     1.8390 c3         1 RUN      -0.102400
     13 C13         -0.5140    -0.8280     1.4700 c3         1 RUN       0.163300
     14 O3          -0.1700    -2.1610     1.7860 oh         1 RUN      -0.660000
     15 C15         -0.9260    -0.6710     0.0020 c3         1 RUN       0.071700
     16 N5           0.1730    -0.9780    -0.8910 ns         1 RUN      -0.494900
     17 C6           0.5200    -0.1910    -1.9270 c          1 RUN       0.582100
     18 O6           0.1160     0.9490    -2.0810 o          1 RUN      -0.592100
     19 C7           1.5150    -0.8250    -2.8970 c3         1 RUN       0.037700
     20 N8           1.3910    -0.1650    -4.1710 ns         1 RUN      -0.473900
     21 C9           1.0610    -0.8370    -5.2920 c          1 RUN       0.637100
     22 O9           1.0750    -2.0440    -5.4230 o          1 RUN      -0.555000
     23 C10          2.9490    -0.7890    -2.3310 c3         1 RUN      -0.057700
     24 C11          3.9130    -1.4720    -3.2930 c3         1 RUN      -0.089600
     25 C12          3.4170     0.6220    -1.9910 c3         1 RUN      -0.089600
     26 CA           2.1870     1.0640     3.5720 c3         1 RUN      -0.027100
     27 C1A          2.6220     1.0320     5.0100 ca         1 RUN      -0.091300
     28 C2A          3.4900     0.0430     5.4660 ca         1 RUN      -0.105500
     29 C3A          3.8350    -0.0380     6.8090 ca         1 RUN      -0.110500
     30 C4A          3.3110     0.8720     7.7190 ca         1 RUN      -0.107000
     31 C5A          2.4460     1.8630     7.2750 ca         1 RUN      -0.110500
     32 C6A          2.1080     1.9420     5.9310 ca         1 RUN      -0.105500
     33 CB          -2.1510    -1.5250    -0.3660 c3         1 RUN      -0.048100
     34 C1B         -2.5260    -1.3290    -1.8080 ca         1 RUN      -0.086300
     35 C2B         -1.9960    -2.1500    -2.8010 ca         1 RUN      -0.105500
     36 C3B         -2.2570    -1.9080    -4.1440 ca         1 RUN      -0.105000
     37 C4B         -3.0640    -0.8420    -4.5130 ca         1 RUN      -0.110000
     38 C5B         -3.6120    -0.0250    -3.5320 ca         1 RUN      -0.105000
     39 C6B         -3.3400    -0.2670    -2.1920 ca         1 RUN      -0.105500
     40 OC           0.7270     0.0120    -6.2700 os         1 RUN      -0.452100
     41 CC           0.3330    -0.5640    -7.5210 c3         1 RUN       0.231900
     42 C1C         -0.1490     0.5600    -8.3860 ca         1 RUN      -0.101300
     43 C2C          0.6820     1.1250    -9.3470 ca         1 RUN      -0.084000
     44 C3C          0.2380     2.1820   -10.1320 ca         1 RUN      -0.115000
     45 C4C         -1.0440     2.6850    -9.9580 ca         1 RUN      -0.097000
     46 C5C         -1.8810     2.1270    -8.9990 ca         1 RUN      -0.115000
     47 C6C         -1.4340     1.0710    -8.2190 ca         1 RUN      -0.084000
     48 H2          -3.4550     1.1980     7.3210 hc         1 RUN       0.062700
     49 H3'1        -4.4490     0.4890     9.4700 hc         1 RUN       0.042200
     50 H3'2        -4.3790    -0.8750     8.3600 hc         1 RUN       0.042200
     51 H3'3        -3.2090    -0.7450     9.6760 hc         1 RUN       0.042200
     52 H4'1        -1.3740     1.1360     9.5630 hc         1 RUN       0.042200
     53 H4'2        -1.4050     2.2750     8.2130 hc         1 RUN       0.042200
     54 H4'3        -2.6920     2.3010     9.4150 hc         1 RUN       0.042200
     55 H4          -2.4300     2.1360     5.4520 h4         1 RUN       0.039100
     56 H1           1.3850    -0.9280     3.5190 hc         1 RUN       0.055700
     57 H21          1.4660    -0.0180     1.2050 hc         1 RUN       0.065200
     58 H22          0.2470     1.1700     1.6150 hc         1 RUN       0.065200
     59 H3          -1.4030    -0.6010     2.0670 h1         1 RUN       0.089700
     60 HO3          0.7280    -2.3350     1.4820 ho         1 RUN       0.437000
     61 H8          -1.1790     0.3790    -0.1510 h1         1 RUN       0.094700
     62 HN5          0.4620    -1.9440    -0.9370 hn         1 RUN       0.305500
     63 H7           1.2440    -1.8730    -3.0430 h1         1 RUN       0.085700
     64 HN8          1.2110     0.8280    -4.1490 hn         1 RUN       0.345500
     65 H10          2.9280    -1.3760    -1.4060 hc         1 RUN       0.041700
     66 H111         4.8970    -1.5730    -2.8330 hc         1 RUN       0.040867
     67 H112         3.5680    -2.4700    -3.5690 hc         1 RUN       0.040867
     68 H113         4.0370    -0.8950    -4.2100 hc         1 RUN       0.040867
     69 H121         3.3740     1.2770    -2.8630 hc         1 RUN       0.040867
     70 H122         2.8200     1.0770    -1.2000 hc         1 RUN       0.040867
     71 H123         4.4510     0.6020    -1.6470 hc         1 RUN       0.040867
     72 HA1          3.0210     0.7980     2.9160 hc         1 RUN       0.059700
     73 HA2          1.8690     2.0720     3.2960 hc         1 RUN       0.059700
     74 H2A          3.9040    -0.6720     4.7640 ha         1 RUN       0.114500
     75 H3A          4.5130    -0.8120     7.1440 ha         1 RUN       0.113000
     76 H4A          3.5790     0.8100     8.7660 ha         1 RUN       0.114000
     77 H5A          2.0350     2.5790     7.9760 ha         1 RUN       0.113000
     78 H6A          1.4290     2.7170     5.5950 ha         1 RUN       0.114500
     79 HB1         -1.9340    -2.5780    -0.1690 hc         1 RUN       0.060700
     80 HB2         -2.9800    -1.2400     0.2870 hc         1 RUN       0.060700
     81 H2B         -1.3710    -2.9920    -2.5260 ha         1 RUN       0.109000
     82 H3B         -1.8260    -2.5530    -4.8990 ha         1 RUN       0.117000
     83 H4B         -3.2730    -0.6520    -5.5590 ha         1 RUN       0.109000
     84 H5B         -4.2490     0.8050    -3.8090 ha         1 RUN       0.117000
     85 H6B         -3.7650     0.3820    -1.4350 ha         1 RUN       0.109000
     86 HC1          1.1790    -1.0780    -7.9820 h1         1 RUN       0.054200
     87 HC2         -0.4600    -1.2980    -7.3620 h1         1 RUN       0.054200
     88 H2C          1.6840     0.7360    -9.4880 ha         1 RUN       0.114000
     89 H3C          0.8930     2.6110   -10.8790 ha         1 RUN       0.114000
     90 H4C         -1.3920     3.5080   -10.5690 ha         1 RUN       0.113000
     91 H5C         -2.8830     2.5120    -8.8620 ha         1 RUN       0.114000
     92 H6C         -2.0940     0.6350    -7.4780 ha         1 RUN       0.114000
     93 HN1          0.1040    -1.1880     5.6060 hn         1 RUN       0.373000
@<TRIPOS>BOND
     1     1     2 2   
     2     1     3 1   
     3     1    10 1   
     4     3     4 1   
     5     3     5 1   
     6     3    48 1   
     7     4    49 1   
     8     4    50 1   
     9     4    51 1   
    10     5    52 1   
    11     5    53 1   
    12     5    54 1   
    13     6     7 1   
    14     6    10 1   
    15     6    93 1   
    16     7     8 2   
    17     7    11 1   
    18     8     9 1   
    19     9    10 2   
    20     9    55 1   
    21    11    12 1   
    22    11    26 1   
    23    11    56 1   
    24    12    13 1   
    25    12    57 1   
    26    12    58 1   
    27    13    14 1   
    28    13    15 1   
    29    13    59 1   
    30    14    60 1   
    31    15    16 1   
    32    15    33 1   
    33    15    61 1   
    34    16    17 1   
    35    16    62 1   
    36    17    18 2   
    37    17    19 1   
    38    19    20 1   
    39    19    23 1   
    40    19    63 1   
    41    20    21 1   
    42    20    64 1   
    43    21    22 2   
    44    21    40 1   
    45    23    24 1   
    46    23    25 1   
    47    23    65 1   
    48    24    66 1   
    49    24    67 1   
    50    24    68 1   
    51    25    69 1   
    52    25    70 1   
    53    25    71 1   
    54    26    27 1   
    55    26    72 1   
    56    26    73 1   
    57    27    28 ar  
    58    27    32 ar  
    59    28    29 ar  
    60    28    74 1   
    61    29    30 ar  
    62    29    75 1   
    63    30    31 ar  
    64    30    76 1   
    65    31    32 ar  
    66    31    77 1   
    67    32    78 1   
    68    33    34 1   
    69    33    79 1   
    70    33    80 1   
    71    34    35 ar  
    72    34    39 ar  
    73    35    36 ar  
    74    35    81 1   
    75    36    37 ar  
    76    36    82 1   
    77    37    38 ar  
    78    37    83 1   
    79    38    39 ar  
    80    38    84 1   
    81    39    85 1   
    82    40    41 1   
    83    41    42 1   
    84    41    86 1   
    85    41    87 1   
    86    42    43 ar  
    87    42    47 ar  
    88    43    44 ar  
    89    43    88 1   
    90    44    45 ar  
    91    44    89 1   
    92    45    46 ar  
    93    45    90 1   
    94    46    47 ar  
    95    46    91 1   
    96    47    92 1   
@<TRIPOS>SUBSTRUCTURE
     1 RUN         1 TEMP              0 ****  ****    0 ROOT
