@<TRIPOS>MOLECULE
RUN
   93    96     1     0     0
SMALL
No Charge or Current Charge


@<TRIPOS>ATOM
      1 C1          -1.2920     0.1050     7.4600 c          1 RUN       0.617700
      2 O1          -0.5640    -0.6670     8.0720 o          1 RUN      -0.541100
      3 C2D         -2.5290     0.7250     8.1600 c3         1 RUN      -0.147700
      4 C3          -3.4740    -0.3670     8.7170 c3         1 RUN      -0.083100
      5 C4D         -2.0930     1.7280     9.2560 c3         1 RUN      -0.083100
      6 N1           0.0770     0.0050     5.2630 na         1 RUN      -0.240500
      7 C2          -0.0270     0.6090     4.0370 cc         1 RUN       0.423800
      8 N3          -1.0810     1.4080     4.0060 nd         1 RUN      -0.694000
      9 C4          -1.6730     1.3180     5.2490 cd         1 RUN       0.292900
     10 C5          -0.9720     0.4500     6.0520 cc         1 RUN      -0.311600
     11 C8           0.9530     0.3960     2.9030 c3         1 RUN      -0.080000
     12 C14          0.2530     0.1170     1.5410 c3         1 RUN      -0.102400
     13 C13         -0.7380    -1.0780     1.5510 c3         1 RUN       0.163300
     14 O3          -0.0190    -2.2790     1.8770 oh         1 RUN      -0.660000
     15 C15         -1.4940    -1.2520     0.1970 c3         1 RUN       0.071700
     16 N5          -0.5920    -1.5720    -0.9250 ns         1 RUN      -0.494900
     17 C6          -0.1600    -0.6660    -1.8740 c          1 RUN       0.582100
     18 O6          -0.4470     0.5240    -1.8140 o          1 RUN      -0.592100
     19 C7           0.7090    -1.2750    -3.0140 c3         1 RUN       0.037700
     20 N8           0.8400    -0.3040    -4.1240 ns         1 RUN      -0.473900
     21 C9           0.8320    -0.6150    -5.4530 c          1 RUN       0.637100
     22 O9           0.6990    -1.7370    -5.9150 o          1 RUN      -0.555000
     23 C10          2.0980    -1.7670    -2.4940 c3         1 RUN      -0.057700
     24 C11          2.8450    -2.6380    -3.5300 c3         1 RUN      -0.089600
     25 C12          2.9990    -0.6130    -1.9870 c3         1 RUN      -0.089600
     26 CA           1.9520     1.5760     2.7970 c3         1 RUN      -0.027100
     27 C1A          2.7260     1.7930     4.0930 ca         1 RUN      -0.091300
     28 C2A          3.8410     0.9860     4.3950 ca         1 RUN      -0.105500
     29 C3A          4.5430     1.1690     5.5990 ca         1 RUN      -0.110500
     30 C4A          4.1340     2.1580     6.5080 ca         1 RUN      -0.107000
     31 C5A          3.0220     2.9650     6.2130 ca         1 RUN      -0.110500
     32 C6A          2.3210     2.7830     5.0090 ca         1 RUN      -0.105500
     33 CB          -2.6380    -2.2940     0.2720 c3         1 RUN      -0.048100
     34 C1B         -3.3890    -2.4380    -1.0490 ca         1 RUN      -0.086300
     35 C2B         -3.2300    -3.5940    -1.8390 ca         1 RUN      -0.105500
     36 C3B         -3.9100    -3.7150    -3.0640 ca         1 RUN      -0.105000
     37 C4B         -4.7520    -2.6810    -3.5060 ca         1 RUN      -0.110000
     38 C5B         -4.9150    -1.5270    -2.7230 ca         1 RUN      -0.105000
     39 C6B         -4.2360    -1.4060    -1.4980 ca         1 RUN      -0.105500
     40 OC           0.9650     0.5320    -6.1710 os         1 RUN      -0.452100
     41 CC           0.9690     0.4200    -7.6030 c3         1 RUN       0.231900
     42 C1C          1.1340     1.8150    -8.1930 ca         1 RUN      -0.101300
     43 C2C          2.4200     2.3330    -8.4430 ca         1 RUN      -0.084000
     44 C3C          2.5710     3.6200    -8.9880 ca         1 RUN      -0.115000
     45 C4C          1.4390     4.3970    -9.2850 ca         1 RUN      -0.097000
     46 C5C          0.1540     3.8860    -9.0350 ca         1 RUN      -0.115000
     47 C6C          0.0010     2.5990    -8.4900 ca         1 RUN      -0.084000
     48 H2          -3.1050     1.3010     7.4330 hc         1 RUN       0.062700
     49 H3'1        -4.3720     0.0840     9.1550 hc         1 RUN       0.042200
     50 H3'2        -3.7920    -1.0460     7.9160 hc         1 RUN       0.042200
     51 H3'3        -2.9760    -0.9610     9.4930 hc         1 RUN       0.042200
     52 H4'1        -1.5270     1.2220    10.0480 hc         1 RUN       0.042200
     53 H4'2        -1.4580     2.5140     8.8290 hc         1 RUN       0.042200
     54 H4'3        -2.9670     2.2080     9.7130 hc         1 RUN       0.042200
     55 H4          -2.5620     1.8920     5.4760 h4         1 RUN       0.039100
     56 H1           1.5490    -0.4930     3.1420 hc         1 RUN       0.055700
     57 H21          1.0220    -0.0560     0.7780 hc         1 RUN       0.065200
     58 H22         -0.2900     1.0180     1.2300 hc         1 RUN       0.065200
     59 H3          -1.4980    -0.8800     2.3200 h1         1 RUN       0.089700
     60 HO3          0.6410    -2.4140     1.1650 ho         1 RUN       0.437000
     61 H8          -1.9740    -0.2880    -0.0190 h1         1 RUN       0.094700
     62 HN5         -0.3460    -2.5420    -1.0780 hn         1 RUN       0.305500
     63 H7           0.1490    -2.1460    -3.3810 h1         1 RUN       0.085700
     64 HN8          0.9090     0.6810    -3.9030 hn         1 RUN       0.345500
     65 H10          1.9090    -2.4210    -1.6330 hc         1 RUN       0.041700
     66 H111         3.7480    -3.0750    -3.0870 hc         1 RUN       0.040867
     67 H112         2.2080    -3.4610    -3.8770 hc         1 RUN       0.040867
     68 H113         3.1490    -2.0460    -4.4010 hc         1 RUN       0.040867
     69 H121         3.2740     0.0630    -2.8060 hc         1 RUN       0.040867
     70 H122         2.4940    -0.0250    -1.2130 hc         1 RUN       0.040867
     71 H123         3.9250    -1.0100    -1.5530 hc         1 RUN       0.040867
     72 HA1          2.6540     1.3850     1.9760 hc         1 RUN       0.059700
     73 HA2          1.4070     2.4890     2.5230 hc         1 RUN       0.059700
     74 H2A          4.1610     0.2140     3.6980 ha         1 RUN       0.114500
     75 H3A          5.4030     0.5430     5.8270 ha         1 RUN       0.113000
     76 H4A          4.6760     2.2990     7.4410 ha         1 RUN       0.114000
     77 H5A          2.7020     3.7300     6.9180 ha         1 RUN       0.113000
     78 H6A          1.4560     3.4070     4.7920 ha         1 RUN       0.114500
     79 HB1         -2.2280    -3.2630     0.5810 hc         1 RUN       0.060700
     80 HB2         -3.3390    -1.9980     1.0620 hc         1 RUN       0.060700
     81 H2B         -2.5780    -4.3990    -1.5080 ha         1 RUN       0.109000
     82 H3B         -3.7820    -4.6090    -3.6700 ha         1 RUN       0.117000
     83 H4B         -5.2770    -2.7750    -4.4540 ha         1 RUN       0.109000
     84 H5B         -5.5670    -0.7250    -3.0640 ha         1 RUN       0.117000
     85 H6B         -4.3660    -0.5070    -0.8990 ha         1 RUN       0.109000
     86 HC1          1.7940    -0.2210    -7.9410 h1         1 RUN       0.054200
     87 HC2          0.0300    -0.0220    -7.9620 h1         1 RUN       0.054200
     88 H2C          3.3020     1.7390    -8.2140 ha         1 RUN       0.114000
     89 H3C          3.5670     4.0150    -9.1800 ha         1 RUN       0.114000
     90 H4C          1.5570     5.3930    -9.7060 ha         1 RUN       0.113000
     91 H5C         -0.7240     4.4880    -9.2620 ha         1 RUN       0.114000
     92 H6C         -0.9970     2.2120    -8.2970 ha         1 RUN       0.114000
     93 HN1          0.8100    -0.6410     5.5310 hn         1 RUN       0.373000
@<TRIPOS>BOND
     1     1     2 2   
     2     1     3 1   
     3     1    10 1   
     4     3     4 1   
     5     3     5 1   
     6     3    48 1   
     7     4    49 1   
     8     4    50 1   
     9     4    51 1   
    10     5    52 1   
    11     5    53 1   
    12     5    54 1   
    13     6     7 1   
    14     6    10 1   
    15     6    93 1   
    16     7     8 2   
    17     7    11 1   
    18     8     9 1   
    19     9    10 2   
    20     9    55 1   
    21    11    12 1   
    22    11    26 1   
    23    11    56 1   
    24    12    13 1   
    25    12    57 1   
    26    12    58 1   
    27    13    14 1   
    28    13    15 1   
    29    13    59 1   
    30    14    60 1   
    31    15    16 1   
    32    15    33 1   
    33    15    61 1   
    34    16    17 1   
    35    16    62 1   
    36    17    18 2   
    37    17    19 1   
    38    19    20 1   
    39    19    23 1   
    40    19    63 1   
    41    20    21 1   
    42    20    64 1   
    43    21    22 2   
    44    21    40 1   
    45    23    24 1   
    46    23    25 1   
    47    23    65 1   
    48    24    66 1   
    49    24    67 1   
    50    24    68 1   
    51    25    69 1   
    52    25    70 1   
    53    25    71 1   
    54    26    27 1   
    55    26    72 1   
    56    26    73 1   
    57    27    28 ar  
    58    27    32 ar  
    59    28    29 ar  
    60    28    74 1   
    61    29    30 ar  
    62    29    75 1   
    63    30    31 ar  
    64    30    76 1   
    65    31    32 ar  
    66    31    77 1   
    67    32    78 1   
    68    33    34 1   
    69    33    79 1   
    70    33    80 1   
    71    34    35 ar  
    72    34    39 ar  
    73    35    36 ar  
    74    35    81 1   
    75    36    37 ar  
    76    36    82 1   
    77    37    38 ar  
    78    37    83 1   
    79    38    39 ar  
    80    38    84 1   
    81    39    85 1   
    82    40    41 1   
    83    41    42 1   
    84    41    86 1   
    85    41    87 1   
    86    42    43 ar  
    87    42    47 ar  
    88    43    44 ar  
    89    43    88 1   
    90    44    45 ar  
    91    44    89 1   
    92    45    46 ar  
    93    45    90 1   
    94    46    47 ar  
    95    46    91 1   
    96    47    92 1   
@<TRIPOS>SUBSTRUCTURE
     1 RUN         1 TEMP              0 ****  ****    0 ROOT
