@<TRIPOS>MOLECULE
RUP
   73    77     1     0     0
SMALL
bcc


@<TRIPOS>ATOM
      1 C1          -2.3080     0.9310     5.5470 c6         1 RUP      -0.054367
      2 C6          -1.7630     1.3490     4.1820 c6         1 RUP      -0.084067
      3 C9          -1.5010     0.1180     3.3020 c6         1 RUP       0.150400
      4 N10         -0.9910     0.6240     2.0320 ns         1 RUP      -0.588900
      5 C12         -0.6110    -0.1280     0.9700 c          1 RUP       0.790100
      6 O17         -0.5750    -1.3520     0.9730 o          1 RUP      -0.645100
      7 N13         -0.2860     0.6040    -0.1440 ns         1 RUP      -0.576900
      8 C14          0.4530     0.0270    -1.2320 c3         1 RUP       0.040700
      9 C26         -0.0790     0.5780    -2.5510 c          1 RUP       0.663100
     10 O31         -0.3560     1.7630    -2.6700 o          1 RUP      -0.605100
     11 N27         -0.1580    -0.3150    -3.5460 ns         1 RUP      -0.570900
     12 C28         -0.5590     0.0060    -4.8980 c3         1 RUP       0.099000
     13 C29          0.2640    -0.7810    -5.9160 c3         1 RUP      -0.049100
     14 C30         -0.1650    -0.4510    -7.3180 ca         1 RUP      -0.084300
     15 C36          0.4490     0.5810    -8.0250 ca         1 RUP      -0.122000
     16 C35          0.0290     0.9150    -9.3050 ca         1 RUP      -0.126000
     17 C34         -1.0180     0.2210    -9.8980 ca         1 RUP      -0.125000
     18 C33         -1.6410    -0.8070    -9.2020 ca         1 RUP      -0.126000
     19 C32         -1.2160    -1.1380    -7.9220 ca         1 RUP      -0.122000
     20 C15          1.9640     0.3380    -1.1420 c3         1 RUP      -0.056100
     21 C16          2.5310    -0.1010     0.1750 ca         1 RUP      -0.083300
     22 C22          2.9920    -1.4020     0.3610 ca         1 RUP      -0.096000
     23 C21          3.4690    -1.8120     1.5970 ca         1 RUP      -0.125000
     24 C20          3.4860    -0.9310     2.6690 ca         1 RUP      -0.097000
     25 C19          3.0200     0.3700     2.5030 ca         1 RUP      -0.196900
     26 C23          2.9860     1.3320     3.6400 ce         1 RUP       0.666800
     27 N25          4.0280     1.2340     4.5100 nv         1 RUP      -0.926800
     28 N24          2.0450     2.1750     3.8430 n2         1 RUP      -0.853100
     29 C18          2.5520     0.7720     1.2560 ca         1 RUP      -0.106000
     30 C8          -2.8200    -0.6490     3.1320 c6         1 RUP      -0.084067
     31 C11         -0.4750    -0.7670     4.0210 c6         1 RUP      -0.084067
     32 C4          -1.0200    -1.1960     5.3860 c6         1 RUP      -0.054367
     33 C5          -1.2820     0.0390     6.2480 c6         1 RUP      -0.071400
     34 C3          -2.3240    -1.9740     5.1950 c6         1 RUP      -0.071400
     35 C2          -3.6160     0.1600     5.3550 c6         1 RUP      -0.071400
     36 C7          -3.3550    -1.0810     4.5000 c6         1 RUP      -0.054367
     37 H1          -2.4910     1.8280     6.1460 hc         1 RUP       0.050367
     38 H61         -0.8320     1.9120     4.3080 hc         1 RUP       0.052867
     39 H62         -2.4780     2.0140     3.6810 hc         1 RUP       0.052867
     40 H10         -1.0800     1.6180     1.8920 hn         1 RUP       0.305500
     41 H13         -0.2460     1.6090    -0.0690 hn         1 RUP       0.313500
     42 H14          0.3140    -1.0540    -1.1890 h1         1 RUP       0.093700
     43 H27          0.0170    -1.2840    -3.3320 hn         1 RUP       0.314500
     44 H281        -1.6230    -0.2050    -5.0390 h1         1 RUP       0.061200
     45 H282        -0.4190     1.0750    -5.0530 h1         1 RUP       0.061200
     46 H291         1.3220    -0.5490    -5.7790 hc         1 RUP       0.049700
     47 H292         0.1420    -1.8530    -5.7330 hc         1 RUP       0.049700
     48 H36          1.2690     1.1260    -7.5700 ha         1 RUP       0.129000
     49 H35          0.5220     1.7150    -9.8430 ha         1 RUP       0.131500
     50 H34         -1.3450     0.4780   -10.8980 ha         1 RUP       0.131000
     51 H33         -2.4550    -1.3550    -9.6580 ha         1 RUP       0.131500
     52 H32         -1.7040    -1.9450    -7.3860 ha         1 RUP       0.129000
     53 H151         2.1110     1.4130    -1.2730 hc         1 RUP       0.061200
     54 H152         2.4760    -0.1600    -1.9680 hc         1 RUP       0.061200
     55 H22          2.9780    -2.0980    -0.4690 ha         1 RUP       0.131000
     56 H21          3.8240    -2.8260     1.7300 ha         1 RUP       0.136000
     57 H20          3.8460    -1.2650     3.6340 ha         1 RUP       0.142000
     58 H251         4.0930     1.9460     5.2210 hn         1 RUP       0.416300
     59 H252         4.9130     0.9000     4.1680 hn         1 RUP       0.416300
     60 H24          1.2990     2.0360     3.1710 hn         1 RUP       0.386400
     61 H18          2.2200     1.7940     1.1140 ha         1 RUP       0.131000
     62 H81         -3.5490    -0.0040     2.6290 hc         1 RUP       0.052867
     63 H82         -2.6660    -1.5200     2.4920 hc         1 RUP       0.052867
     64 H111        -0.2380    -1.6440     3.4170 hc         1 RUP       0.052867
     65 H112         0.4570    -0.2050     4.1370 hc         1 RUP       0.052867
     66 H4          -0.2810    -1.8360     5.8790 hc         1 RUP       0.050367
     67 H51         -0.3500     0.5900     6.4100 hc         1 RUP       0.041700
     68 H52         -1.6510    -0.2570     7.2350 hc         1 RUP       0.041700
     69 H31         -2.1420    -2.8750     4.6020 hc         1 RUP       0.041700
     70 H32A        -2.7100    -2.3060     6.1640 hc         1 RUP       0.041700
     71 H21A        -4.0330    -0.1270     6.3260 hc         1 RUP       0.041700
     72 H22A        -4.3600     0.8000     4.8690 hc         1 RUP       0.041700
     73 H7          -4.2880    -1.6350     4.3610 hc         1 RUP       0.050367
@<TRIPOS>BOND
     1     1     2 1   
     2     1    33 1   
     3     1    35 1   
     4     1    37 1   
     5     2     3 1   
     6     2    38 1   
     7     2    39 1   
     8     3     4 1   
     9     3    30 1   
    10     3    31 1   
    11     4     5 1   
    12     4    40 1   
    13     5     6 2   
    14     5     7 1   
    15     7     8 1   
    16     7    41 1   
    17     8     9 1   
    18     8    20 1   
    19     8    42 1   
    20     9    10 2   
    21     9    11 1   
    22    11    12 1   
    23    11    43 1   
    24    12    13 1   
    25    12    44 1   
    26    12    45 1   
    27    13    14 1   
    28    13    46 1   
    29    13    47 1   
    30    14    15 ar  
    31    14    19 ar  
    32    15    16 ar  
    33    15    48 1   
    34    16    17 ar  
    35    16    49 1   
    36    17    18 ar  
    37    17    50 1   
    38    18    19 ar  
    39    18    51 1   
    40    19    52 1   
    41    20    21 1   
    42    20    53 1   
    43    20    54 1   
    44    21    22 ar  
    45    21    29 ar  
    46    22    23 ar  
    47    22    55 1   
    48    23    24 ar  
    49    23    56 1   
    50    24    25 ar  
    51    24    57 1   
    52    25    26 1   
    53    25    29 ar  
    54    26    27 1   
    55    26    28 2   
    56    27    58 1   
    57    27    59 1   
    58    28    60 1   
    59    29    61 1   
    60    30    36 1   
    61    30    62 1   
    62    30    63 1   
    63    31    32 1   
    64    31    64 1   
    65    31    65 1   
    66    32    33 1   
    67    32    34 1   
    68    32    66 1   
    69    33    67 1   
    70    33    68 1   
    71    34    36 1   
    72    34    69 1   
    73    34    70 1   
    74    35    36 1   
    75    35    71 1   
    76    35    72 1   
    77    36    73 1   
@<TRIPOS>SUBSTRUCTURE
     1 RUP         1 TEMP              0 ****  ****    0 ROOT
