@<TRIPOS>MOLECULE
RUP
   73    77     1     0     0
SMALL
No Charge or Current Charge


@<TRIPOS>ATOM
      1 C1          -2.4870     1.0460     5.6380 c6         1 RUP      -0.054367
      2 C6          -2.1360     1.3710     4.1570 c6         1 RUP      -0.084067
      3 C9          -1.6710     0.0850     3.3990 c6         1 RUP       0.150400
      4 N10         -1.3520     0.4750     2.0170 ns         1 RUP      -0.521900
      5 C12         -0.8660    -0.3290     1.0190 c          1 RUP       0.656100
      6 O17         -0.7150    -1.5350     1.1140 o          1 RUP      -0.645100
      7 N13         -0.5600     0.3810    -0.1090 ns         1 RUP      -0.509900
      8 C14          0.1760    -0.1680    -1.2730 c3         1 RUP       0.040700
      9 C26         -0.3900     0.3970    -2.6080 c          1 RUP       0.596100
     10 O31         -1.1670     1.3440    -2.6650 o          1 RUP      -0.605100
     11 N27          0.0440    -0.2460    -3.7480 ns         1 RUP      -0.503900
     12 C28         -0.3560     0.1260    -5.1070 c3         1 RUP       0.099000
     13 C29          0.4100    -0.6800    -6.1730 c3         1 RUP      -0.049100
     14 C30         -0.0040    -0.2900    -7.5850 ca         1 RUP      -0.084300
     15 C36          0.6660     0.7490    -8.2610 ca         1 RUP      -0.104000
     16 C35          0.2800     1.1130    -9.5630 ca         1 RUP      -0.108000
     17 C34         -0.7800     0.4410   -10.1960 ca         1 RUP      -0.107000
     18 C33         -1.4530    -0.5940    -9.5260 ca         1 RUP      -0.108000
     19 C32         -1.0670    -0.9580    -8.2240 ca         1 RUP      -0.104000
     20 C15          1.7010     0.1060    -1.1410 c3         1 RUP      -0.056100
     21 C16          2.2790    -0.3090     0.2100 ca         1 RUP      -0.083300
     22 C22          2.5640    -1.6610     0.4700 ca         1 RUP      -0.078000
     23 C21          3.0600    -2.0460     1.7250 ca         1 RUP      -0.107000
     24 C20          3.2810    -1.0850     2.7250 ca         1 RUP      -0.079000
     25 C19          3.0250     0.2840     2.4780 ca         1 RUP      -0.196900
     26 C23          3.2240     1.3050     3.5530 ce         1 RUP       0.666800
     27 N25          4.1910     1.0860     4.4600 nv         1 RUP      -1.037200
     28 N24          2.6560     2.4380     3.5590 n2         1 RUP      -0.853100
     29 C18          2.5060     0.6540     1.2140 ca         1 RUP      -0.088000
     30 C8          -2.8390    -0.9520     3.4590 c6         1 RUP      -0.084067
     31 C11         -0.4160    -0.4800     4.1410 c6         1 RUP      -0.084067
     32 C4          -0.7690    -0.8240     5.6160 c6         1 RUP      -0.054367
     33 C5          -1.2320     0.4660     6.3490 c6         1 RUP      -0.071400
     34 C3          -1.9180    -1.8750     5.6420 c6         1 RUP      -0.071400
     35 C2          -3.6350    -0.0020     5.6750 c6         1 RUP      -0.071400
     36 C7          -3.1810    -1.2940     4.9390 c6         1 RUP      -0.054367
     37 H1          -2.8100     1.9630     6.1510 hc         1 RUP       0.050367
     38 H61         -1.3470     2.1360     4.1240 hc         1 RUP       0.052867
     39 H62         -3.0100     1.8110     3.6570 hc         1 RUP       0.052867
     40 H10         -1.4400     1.4550     1.7880 hn         1 RUP       0.305500
     41 H13         -0.7770     1.3690    -0.1090 hn         1 RUP       0.313500
     42 H14          0.0200    -1.2540    -1.3060 h1         1 RUP       0.093700
     43 H27          0.6810    -1.0250    -3.6260 hn         1 RUP       0.314500
     44 H281        -1.4340    -0.0480    -5.2200 h1         1 RUP       0.061200
     45 H282        -0.1640     1.1970    -5.2550 h1         1 RUP       0.061200
     46 H291         1.4870    -0.5210    -6.0380 hc         1 RUP       0.049700
     47 H292         0.2330    -1.7500    -6.0100 hc         1 RUP       0.049700
     48 H36          1.4860     1.2750    -7.7770 ha         1 RUP       0.111000
     49 H35          0.8010     1.9160   -10.0800 ha         1 RUP       0.113500
     50 H34         -1.0790     0.7240   -11.2030 ha         1 RUP       0.113000
     51 H33         -2.2740    -1.1140   -10.0150 ha         1 RUP       0.113500
     52 H32         -1.5950    -1.7600    -7.7120 ha         1 RUP       0.111000
     53 H151         1.8810     1.1750    -1.3100 hc         1 RUP       0.061200
     54 H152         2.2330    -0.4160    -1.9460 hc         1 RUP       0.061200
     55 H22          2.3860    -2.4140    -0.2930 ha         1 RUP       0.113000
     56 H21          3.2620    -3.0960     1.9270 ha         1 RUP       0.118000
     57 H20          3.6420    -1.4150     3.6970 ha         1 RUP       0.124000
     58 H251         4.4980     1.9280     4.9280 hn         1 RUP       0.471500
     59 H252         4.9230     0.4500     4.1690 hn         1 RUP       0.471500
     60 H24          1.9380     2.4270     2.8250 hn         1 RUP       0.386400
     61 H18          2.2820     1.6970     0.9990 ha         1 RUP       0.113000
     62 H81         -3.7260    -0.5540     2.9480 hc         1 RUP       0.052867
     63 H82         -2.5660    -1.8730     2.9290 hc         1 RUP       0.052867
     64 H111        -0.0400    -1.3800     3.6380 hc         1 RUP       0.052867
     65 H112         0.4030     0.2510     4.1110 hc         1 RUP       0.052867
     66 H4           0.1170    -1.2350     6.1200 hc         1 RUP       0.050367
     67 H51         -0.4220     1.2100     6.3570 hc         1 RUP       0.041700
     68 H52         -1.4590     0.2450     7.4010 hc         1 RUP       0.041700
     69 H31         -1.5980    -2.8000     5.1420 hc         1 RUP       0.041700
     70 H32A        -2.1560    -2.1500     6.6790 hc         1 RUP       0.041700
     71 H21A        -3.9050    -0.2330     6.7150 hc         1 RUP       0.041700
     72 H22A        -4.5390     0.4070     5.2030 hc         1 RUP       0.041700
     73 H7          -3.9910    -2.0360     4.9660 hc         1 RUP       0.050367
@<TRIPOS>BOND
     1     1     2 1   
     2     1    33 1   
     3     1    35 1   
     4     1    37 1   
     5     2     3 1   
     6     2    38 1   
     7     2    39 1   
     8     3     4 1   
     9     3    30 1   
    10     3    31 1   
    11     4     5 1   
    12     4    40 1   
    13     5     6 2   
    14     5     7 1   
    15     7     8 1   
    16     7    41 1   
    17     8     9 1   
    18     8    20 1   
    19     8    42 1   
    20     9    10 2   
    21     9    11 1   
    22    11    12 1   
    23    11    43 1   
    24    12    13 1   
    25    12    44 1   
    26    12    45 1   
    27    13    14 1   
    28    13    46 1   
    29    13    47 1   
    30    14    15 ar  
    31    14    19 ar  
    32    15    16 ar  
    33    15    48 1   
    34    16    17 ar  
    35    16    49 1   
    36    17    18 ar  
    37    17    50 1   
    38    18    19 ar  
    39    18    51 1   
    40    19    52 1   
    41    20    21 1   
    42    20    53 1   
    43    20    54 1   
    44    21    22 ar  
    45    21    29 ar  
    46    22    23 ar  
    47    22    55 1   
    48    23    24 ar  
    49    23    56 1   
    50    24    25 ar  
    51    24    57 1   
    52    25    26 1   
    53    25    29 ar  
    54    26    27 1   
    55    26    28 2   
    56    27    58 1   
    57    27    59 1   
    58    28    60 1   
    59    29    61 1   
    60    30    36 1   
    61    30    62 1   
    62    30    63 1   
    63    31    32 1   
    64    31    64 1   
    65    31    65 1   
    66    32    33 1   
    67    32    34 1   
    68    32    66 1   
    69    33    67 1   
    70    33    68 1   
    71    34    36 1   
    72    34    69 1   
    73    34    70 1   
    74    35    36 1   
    75    35    71 1   
    76    35    72 1   
    77    36    73 1   
@<TRIPOS>SUBSTRUCTURE
     1 RUP         1 TEMP              0 ****  ****    0 ROOT
