@<TRIPOS>MOLECULE
RUT
   73    77     1     0     0
SMALL
No Charge or Current Charge


@<TRIPOS>ATOM
      1 O1          -2.5900    -3.3990     1.2850 os         1 RUT      -0.213200
      2 C1          -2.1430    -2.1340     0.9650 cc         1 RUT       0.216900
      3 C2          -2.1830    -1.6540    -0.3330 cd         1 RUT      -0.116100
      4 O2          -1.8310    -0.3160    -0.4800 os         1 RUT      -0.325100
      5 C3          -2.3980    -2.5810    -1.4660 c          1 RUT       0.600900
      6 O3          -2.5310    -2.1890    -2.6190 o          1 RUT      -0.544100
      7 C4          -2.3570    -5.0710    -2.0360 ca         1 RUT       0.275100
      8 O4          -2.2560    -4.8370    -3.3690 oh         1 RUT      -0.483100
      9 C5          -2.3830    -6.4050    -1.6160 ca         1 RUT      -0.363000
     10 C6          -2.4720    -6.7060    -0.2580 ca         1 RUT       0.247100
     11 O5          -2.5060    -8.0000     0.1490 oh         1 RUT      -0.518100
     12 C7          -2.5280    -5.6810     0.6820 ca         1 RUT      -0.231000
     13 C8          -2.4860    -4.3400     0.2780 ca         1 RUT       0.231100
     14 C9          -2.4200    -4.0210    -1.0910 ca         1 RUT      -0.300600
     15 C10         -1.5310    -1.3250     2.0160 ca         1 RUT      -0.067800
     16 C11         -0.2850    -1.7200     2.5380 ca         1 RUT      -0.142000
     17 C12          0.4280    -0.8640     3.3920 ca         1 RUT       0.051100
     18 O6           1.6580    -1.2490     3.8580 oh         1 RUT      -0.537100
     19 C13         -0.1160     0.3970     3.7310 ca         1 RUT       0.139100
     20 O7           0.6260     1.3020     4.4310 oh         1 RUT      -0.553100
     21 C14         -1.3910     0.7610     3.2720 ca         1 RUT      -0.131000
     22 C15         -2.0990    -0.0980     2.4140 ca         1 RUT      -0.042000
     23 C16         -1.2790     0.2850    -1.6680 c6         1 RUT       0.359300
     24 C17         -2.3600     1.0360    -2.5330 c6         1 RUT       0.119300
     25 O8          -3.4660     0.2180    -2.9930 oh         1 RUT      -0.744000
     26 C18         -1.6310     1.6620    -3.7540 c6         1 RUT       0.134300
     27 O9          -2.5730     2.3680    -4.5780 oh         1 RUT      -0.665000
     28 C19         -0.4980     2.6140    -3.2740 c6         1 RUT       0.144300
     29 O10          0.1960     3.1540    -4.4140 oh         1 RUT      -0.721000
     30 C20          0.4650     1.8640    -2.2940 c6         1 RUT       0.176300
     31 C21          1.4980     2.8600    -1.6740 c3         1 RUT       0.175600
     32 O11         -0.3050     1.2570    -1.2250 os         1 RUT      -0.468000
     33 C22          2.1120     2.2890     0.6560 c6         1 RUT       0.393300
     34 O12          2.4160     2.2100    -0.7590 os         1 RUT      -0.486000
     35 C23          3.1840     1.5040     1.5010 c6         1 RUT       0.115300
     36 O13          2.9040     1.4680     2.9240 oh         1 RUT      -0.727000
     37 C24          4.5730     2.1800     1.3120 c6         1 RUT       0.137300
     38 O14          5.5580     1.5230     2.1360 oh         1 RUT      -0.656000
     39 C25          4.5040     3.6980     1.6720 c6         1 RUT       0.149300
     40 O15          5.7870     4.3180     1.4300 oh         1 RUT      -0.708000
     41 C26          3.3600     4.3810     0.8570 c6         1 RUT       0.137300
     42 C27          3.1090     5.8540     1.2710 c3         1 RUT      -0.091100
     43 O16          2.1040     3.6840     1.0550 os         1 RUT      -0.464000
     44 HO4         -2.2300    -5.7030    -3.8230 ho         1 RUT       0.471000
     45 H5          -2.3340    -7.2090    -2.3460 ha         1 RUT       0.122000
     46 HO5         -2.4590    -8.5660    -0.6500 ho         1 RUT       0.476000
     47 H7          -2.6030    -5.9230     1.7380 ha         1 RUT       0.154000
     48 H11          0.1490    -2.6680     2.2280 ha         1 RUT       0.120000
     49 HO6          1.8580    -2.1490     3.5240 ho         1 RUT       0.464000
     50 HO7          1.5350     1.2710     4.0250 ho         1 RUT       0.501000
     51 H2          -1.8060     1.7310     3.5330 ha         1 RUT       0.136000
     52 H1          -3.0590     0.2160     2.0090 ha         1 RUT       0.144000
     53 H16         -0.7650    -0.4820    -2.2650 h2         1 RUT       0.042700
     54 H17         -2.7520     1.8580    -1.9160 h1         1 RUT       0.068700
     55 HO8         -3.1620    -0.7350    -2.9310 ho         1 RUT       0.557000
     56 H18         -1.1740     0.8440    -4.3330 h1         1 RUT       0.047700
     57 HO9         -3.4090     1.8520    -4.4880 ho         1 RUT       0.470000
     58 H19         -0.9700     3.4350    -2.7110 h1         1 RUT       0.058700
     59 H10         -0.5130     3.3380    -5.0780 ho         1 RUT       0.527000
     60 H20          1.0130     1.0780    -2.8340 h1         1 RUT       0.062700
     61 H211         0.9570     3.6820    -1.1880 h1         1 RUT       0.056700
     62 H212         2.0700     3.3000    -2.5010 h1         1 RUT       0.056700
     63 H22          1.1220     1.8470     0.8450 h2         1 RUT       0.090700
     64 H23          3.2380     0.4790     1.1070 h1         1 RUT       0.056700
     65 H13          3.7920     1.2690     3.3160 ho         1 RUT       0.533000
     66 H24          4.8560     2.0930     0.2520 h1         1 RUT       0.068700
     67 H14          6.3480     2.1100     2.1060 ho         1 RUT       0.447000
     68 H25          4.2490     3.7850     2.7400 h1         1 RUT       0.059700
     69 H15          5.7670     5.2070     1.8560 ho         1 RUT       0.508000
     70 H26          3.6150     4.3670    -0.2130 h1         1 RUT       0.057700
     71 H271         2.8830     5.9340     2.3410 hc         1 RUT       0.046367
     72 H272         3.9820     6.4820     1.0610 hc         1 RUT       0.046367
     73 H273         2.2630     6.2770     0.7160 hc         1 RUT       0.046367
@<TRIPOS>BOND
     1     1     2 1   
     2     1    13 1   
     3     2     3 2   
     4     2    15 1   
     5     3     4 1   
     6     3     5 1   
     7     4    23 1   
     8     5     6 2   
     9     5    14 1   
    10     7     8 1   
    11     7     9 ar  
    12     7    14 ar  
    13     8    44 1   
    14     9    10 ar  
    15     9    45 1   
    16    10    11 1   
    17    10    12 ar  
    18    11    46 1   
    19    12    13 ar  
    20    12    47 1   
    21    13    14 ar  
    22    15    16 ar  
    23    15    22 ar  
    24    16    17 ar  
    25    16    48 1   
    26    17    18 1   
    27    17    19 ar  
    28    18    49 1   
    29    19    20 1   
    30    19    21 ar  
    31    20    50 1   
    32    21    22 ar  
    33    21    51 1   
    34    22    52 1   
    35    23    24 1   
    36    23    32 1   
    37    23    53 1   
    38    24    25 1   
    39    24    26 1   
    40    24    54 1   
    41    25    55 1   
    42    26    27 1   
    43    26    28 1   
    44    26    56 1   
    45    27    57 1   
    46    28    29 1   
    47    28    30 1   
    48    28    58 1   
    49    29    59 1   
    50    30    31 1   
    51    30    32 1   
    52    30    60 1   
    53    31    34 1   
    54    31    61 1   
    55    31    62 1   
    56    33    34 1   
    57    33    35 1   
    58    33    43 1   
    59    33    63 1   
    60    35    36 1   
    61    35    37 1   
    62    35    64 1   
    63    36    65 1   
    64    37    38 1   
    65    37    39 1   
    66    37    66 1   
    67    38    67 1   
    68    39    40 1   
    69    39    41 1   
    70    39    68 1   
    71    40    69 1   
    72    41    42 1   
    73    41    43 1   
    74    41    70 1   
    75    42    71 1   
    76    42    72 1   
    77    42    73 1   
@<TRIPOS>SUBSTRUCTURE
     1 RUT         1 TEMP              0 ****  ****    0 ROOT
