@<TRIPOS>MOLECULE
RUT
   73    77     1     0     0
SMALL
abcg2


@<TRIPOS>ATOM
      1 O1          -1.3210    -3.2860     0.8370 os         1 RUT      -0.213200
      2 C1          -1.6040    -2.0110     0.5230 cc         1 RUT       0.216900
      3 C2          -2.1990    -1.7180    -0.6570 cd         1 RUT      -0.116100
      4 O2          -2.5140    -0.4430    -0.9970 os         1 RUT      -0.325100
      5 C3          -2.6040    -2.7590    -1.5940 c          1 RUT       0.600900
      6 O3          -3.2000    -2.4720    -2.6300 o          1 RUT      -0.544100
      7 C4          -2.4940    -5.2610    -1.9960 ca         1 RUT       0.275100
      8 O4          -3.1140    -5.1040    -3.1650 oh         1 RUT      -0.483100
      9 C5          -2.1000    -6.5130    -1.5570 ca         1 RUT      -0.363000
     10 C6          -1.4490    -6.6600    -0.3300 ca         1 RUT       0.247100
     11 O5          -1.0550    -7.8550     0.1170 oh         1 RUT      -0.518100
     12 C7          -1.1870    -5.5590     0.4710 ca         1 RUT      -0.231000
     13 C8          -1.5880    -4.3170     0.0140 ca         1 RUT       0.231100
     14 C9          -2.2390    -4.1110    -1.2090 ca         1 RUT      -0.300600
     15 C10         -1.1880    -1.0810     1.5740 ca         1 RUT      -0.067800
     16 C11         -0.0690    -1.3990     2.3530 ca         1 RUT      -0.142000
     17 C12          0.3760    -0.5380     3.3390 ca         1 RUT       0.051100
     18 O6           1.4530    -0.7960     4.1100 oh         1 RUT      -0.537100
     19 C13         -0.2900     0.6790     3.5540 ca         1 RUT       0.139100
     20 O7           0.1540     1.5630     4.4730 oh         1 RUT      -0.553100
     21 C14         -1.4260     0.9630     2.8130 ca         1 RUT      -0.131000
     22 C15         -1.8790     0.0980     1.8310 ca         1 RUT      -0.042000
     23 C16         -1.6390     0.2500    -1.8540 c6         1 RUT       0.359300
     24 C17         -2.4790     0.9650    -2.9070 c6         1 RUT       0.119300
     25 O8          -3.1350     0.0750    -3.7710 oh         1 RUT      -0.744000
     26 C18         -1.5620     1.8490    -3.7410 c6         1 RUT       0.134300
     27 O9          -2.2870     2.6350    -4.6570 oh         1 RUT      -0.665000
     28 C19         -0.7750     2.7970    -2.8470 c6         1 RUT       0.144300
     29 O10          0.1960     3.5010    -3.5820 oh         1 RUT      -0.721000
     30 C20         -0.0460     1.9960    -1.7660 c6         1 RUT       0.176300
     31 C21          0.6010     2.9180    -0.7540 c3         1 RUT       0.175600
     32 O11         -0.9560     1.1690    -1.0620 os         1 RUT      -0.468000
     33 C22          1.7400     2.7030     1.3060 c6         1 RUT       0.393300
     34 O12          1.5120     2.1830     0.0370 os         1 RUT      -0.486000
     35 C23          2.6700     1.7230     2.0120 c6         1 RUT       0.115300
     36 O13          2.6660     2.0540     3.3890 oh         1 RUT      -0.727000
     37 C24          4.0910     1.8030     1.4490 c6         1 RUT       0.137300
     38 O14          4.9640     1.0340     2.2500 oh         1 RUT      -0.656000
     39 C25          4.5770     3.2420     1.4370 c6         1 RUT       0.149300
     40 O15          5.8280     3.2790     0.7920 oh         1 RUT      -0.708000
     41 C26          3.5580     4.1170     0.6940 c6         1 RUT       0.137300
     42 C27          3.9210     5.5870     0.7330 c3         1 RUT      -0.091100
     43 O16          2.2720     3.9930     1.2870 os         1 RUT      -0.464000
     44 HO4         -3.2180    -5.9580    -3.6030 ho         1 RUT       0.471000
     45 H5          -2.2980    -7.3850    -2.1720 ha         1 RUT       0.122000
     46 HO5         -1.2750    -8.5510    -0.5130 ho         1 RUT       0.476000
     47 H7          -0.6850    -5.6630     1.4240 ha         1 RUT       0.154000
     48 H11          0.4750    -2.3210     2.1850 ha         1 RUT       0.120000
     49 HO6          1.8430    -1.6430     3.8680 ho         1 RUT       0.464000
     50 HO7          1.1050     1.7280     4.3120 ho         1 RUT       0.501000
     51 H2          -1.9500     1.8910     2.9990 ha         1 RUT       0.136000
     52 H1          -2.7640     0.3610     1.2720 ha         1 RUT       0.144000
     53 H16         -0.9370    -0.4520    -2.3390 h2         1 RUT       0.042700
     54 H17         -3.2000     1.6050    -2.3700 h1         1 RUT       0.068700
     55 HO8         -3.3290    -0.7550    -3.3030 ho         1 RUT       0.557000
     56 H18         -0.8450     1.1990    -4.2640 h1         1 RUT       0.047700
     57 HO9         -2.6500     2.0580    -5.3370 ho         1 RUT       0.470000
     58 H19         -1.4800     3.4850    -2.3570 h1         1 RUT       0.058700
     59 H10         -0.2520     3.9730    -4.2940 ho         1 RUT       0.527000
     60 H20          0.7300     1.3790    -2.2420 h1         1 RUT       0.062700
     61 H211        -0.1840     3.3720    -0.1350 h1         1 RUT       0.056700
     62 H212         1.1150     3.7280    -1.2800 h1         1 RUT       0.056700
     63 H22          0.7930     2.7980     1.8560 h2         1 RUT       0.090700
     64 H23          2.2860     0.7080     1.8530 h1         1 RUT       0.056700
     65 H13          3.3900     1.5690     3.8040 ho         1 RUT       0.533000
     66 H24          4.0740     1.4330     0.4160 h1         1 RUT       0.068700
     67 H14          4.8800     0.1110     1.9960 ho         1 RUT       0.447000
     68 H25          4.6570     3.6020     2.4730 h1         1 RUT       0.059700
     69 H15          6.2990     4.0630     1.0850 ho         1 RUT       0.508000
     70 H26          3.5260     3.7870    -0.3540 h1         1 RUT       0.057700
     71 H271         4.0100     5.9470     1.7600 hc         1 RUT       0.046367
     72 H272         4.8660     5.7690     0.2240 hc         1 RUT       0.046367
     73 H273         3.1640     6.1840     0.2250 hc         1 RUT       0.046367
@<TRIPOS>BOND
     1     1     2 1   
     2     1    13 1   
     3     2     3 2   
     4     2    15 1   
     5     3     4 1   
     6     3     5 1   
     7     4    23 1   
     8     5     6 2   
     9     5    14 1   
    10     7     8 1   
    11     7     9 ar  
    12     7    14 ar  
    13     8    44 1   
    14     9    10 ar  
    15     9    45 1   
    16    10    11 1   
    17    10    12 ar  
    18    11    46 1   
    19    12    13 ar  
    20    12    47 1   
    21    13    14 ar  
    22    15    16 ar  
    23    15    22 ar  
    24    16    17 ar  
    25    16    48 1   
    26    17    18 1   
    27    17    19 ar  
    28    18    49 1   
    29    19    20 1   
    30    19    21 ar  
    31    20    50 1   
    32    21    22 ar  
    33    21    51 1   
    34    22    52 1   
    35    23    24 1   
    36    23    32 1   
    37    23    53 1   
    38    24    25 1   
    39    24    26 1   
    40    24    54 1   
    41    25    55 1   
    42    26    27 1   
    43    26    28 1   
    44    26    56 1   
    45    27    57 1   
    46    28    29 1   
    47    28    30 1   
    48    28    58 1   
    49    29    59 1   
    50    30    31 1   
    51    30    32 1   
    52    30    60 1   
    53    31    34 1   
    54    31    61 1   
    55    31    62 1   
    56    33    34 1   
    57    33    35 1   
    58    33    43 1   
    59    33    63 1   
    60    35    36 1   
    61    35    37 1   
    62    35    64 1   
    63    36    65 1   
    64    37    38 1   
    65    37    39 1   
    66    37    66 1   
    67    38    67 1   
    68    39    40 1   
    69    39    41 1   
    70    39    68 1   
    71    40    69 1   
    72    41    42 1   
    73    41    43 1   
    74    41    70 1   
    75    42    71 1   
    76    42    72 1   
    77    42    73 1   
@<TRIPOS>SUBSTRUCTURE
     1 RUT         1 TEMP              0 ****  ****    0 ROOT
