@<TRIPOS>MOLECULE
RUU
   20    20     1     0     0
SMALL
bcc


@<TRIPOS>ATOM
      1 C1          17.5590     6.8530    17.7410 c3         1 RUU       0.163400
      2 O1          16.3040     6.2230    17.7780 oh         1 RUU      -0.559800
      3 C2          18.5200     6.0390    16.8900 c5         1 RUU       0.323600
      4 O2          18.5890     4.7600    17.4280 oh         1 RUU      -0.572800
      5 C3          19.9090     6.7200    16.7770 c5         1 RUU       0.041100
      6 O3          20.8190     6.4140    17.7880 oh         1 RUU      -0.584800
      7 C4          20.4010     6.1990    15.4310 c5         1 RUU       0.115100
      8 O4          20.8420     4.8600    15.5230 oh         1 RUU      -0.594800
      9 C5          19.1120     6.2440    14.6350 c5         1 RUU       0.126400
     10 O5          18.0530     6.0100    15.5570 os         1 RUU      -0.407600
     11 H11         17.9910     6.9590    18.7460 h1         1 RUU       0.020200
     12 H12         17.5010     7.8610    17.3130 h1         1 RUU       0.020200
     13 HO1         15.7250     6.7480    18.3370 ho         1 RUU       0.400000
     14 HO2         19.3030     4.2820    16.9860 ho         1 RUU       0.429000
     15 H3          19.7520     7.8050    16.6800 h1         1 RUU       0.048700
     16 HO3         20.5260     6.8080    18.6160 ho         1 RUU       0.422000
     17 H4          21.1700     6.8410    14.9900 h1         1 RUU       0.060700
     18 HO4         21.6300     4.8350    16.0770 ho         1 RUU       0.425000
     19 H51         18.9950     7.2290    14.1730 h1         1 RUU       0.061700
     20 H52         19.0910     5.4940    13.8400 h1         1 RUU       0.061700
@<TRIPOS>BOND
     1     1     2 1   
     2     1     3 1   
     3     1    11 1   
     4     1    12 1   
     5     2    13 1   
     6     3     4 1   
     7     3     5 1   
     8     3    10 1   
     9     4    14 1   
    10     5     6 1   
    11     5     7 1   
    12     5    15 1   
    13     6    16 1   
    14     7     8 1   
    15     7     9 1   
    16     7    17 1   
    17     8    18 1   
    18     9    10 1   
    19     9    19 1   
    20     9    20 1   
@<TRIPOS>SUBSTRUCTURE
     1 RUU         1 TEMP              0 ****  ****    0 ROOT
