@<TRIPOS>MOLECULE
RUU
   20    20     1     0     0
SMALL
No Charge or Current Charge


@<TRIPOS>ATOM
      1 C1          17.5130     6.7950    17.8650 c3         1 RUU       0.186600
      2 O1          16.1760     6.2380    17.8660 oh         1 RUU      -0.682000
      3 C2          18.4830     6.1170    16.8220 c5         1 RUU       0.370000
      4 O2          18.5660     4.7130    17.0480 oh         1 RUU      -0.695000
      5 C3          19.9170     6.7700    16.7550 c5         1 RUU       0.064300
      6 O3          20.7890     6.5100    17.8790 oh         1 RUU      -0.707000
      7 C4          20.4400     6.1200    15.4350 c5         1 RUU       0.138300
      8 O4          20.8650     4.7610    15.6610 oh         1 RUU      -0.717000
      9 C5          19.1410     6.1990    14.5590 c5         1 RUU       0.149600
     10 O5          18.0200     6.3380    15.4780 os         1 RUU      -0.454000
     11 H11         17.9570     6.6960    18.8650 h1         1 RUU       0.020200
     12 H12         17.4660     7.8690    17.6420 h1         1 RUU       0.020200
     13 HO1         15.6670     6.7190    18.5580 ho         1 RUU       0.499000
     14 HO2         19.3980     4.4860    16.5560 ho         1 RUU       0.528000
     15 H3          19.8170     7.8570    16.6130 h1         1 RUU       0.048700
     16 HO3         20.5040     7.0880    18.6280 ho         1 RUU       0.521000
     17 H4          21.2530     6.7100    14.9880 h1         1 RUU       0.060700
     18 HO4         21.6570     4.8280    16.2520 ho         1 RUU       0.524000
     19 H51         19.1580     7.0720    13.8920 h1         1 RUU       0.061700
     20 H52         19.0060     5.3000    13.9430 h1         1 RUU       0.061700
@<TRIPOS>BOND
     1     1     2 1   
     2     1     3 1   
     3     1    11 1   
     4     1    12 1   
     5     2    13 1   
     6     3     4 1   
     7     3     5 1   
     8     3    10 1   
     9     4    14 1   
    10     5     6 1   
    11     5     7 1   
    12     5    15 1   
    13     6    16 1   
    14     7     8 1   
    15     7     9 1   
    16     7    17 1   
    17     8    18 1   
    18     9    10 1   
    19     9    19 1   
    20     9    20 1   
@<TRIPOS>SUBSTRUCTURE
     1 RUU         1 TEMP              0 ****  ****    0 ROOT
