@<TRIPOS>MOLECULE
RUV
   29    30     1     0     0
SMALL
No Charge or Current Charge


@<TRIPOS>ATOM
      1 N1           4.1790    -0.5360     0.1020 ns         1 RUV      -0.149000
      2 N3          -3.7730    -0.4470     0.1470 na         1 RUV      -0.237300
      3 C4           2.2650     0.9020    -0.6100 ca         1 RUV      -0.166000
      4 C5           0.8760     1.1000    -0.6960 ca         1 RUV      -0.034500
      5 C6          -0.0270     0.1370    -0.1940 ca         1 RUV      -0.194600
      6 C7           0.5020    -1.0340     0.3980 ca         1 RUV      -0.034500
      7 C8           1.8920    -1.2260     0.4800 ca         1 RUV      -0.166000
      8 C10         -4.5740    -0.7060    -0.9450 cc         1 RUV       0.390400
      9 C11         -4.5500     0.2940     1.0120 cc         1 RUV       0.390400
     10 C2           5.3080     0.1780    -0.2750 c          1 RUV       0.611100
     11 C3           2.7880    -0.2660    -0.0200 ca         1 RUV       0.018000
     12 N2          -2.3560    -0.5920     0.2050 ns         1 RUV      -0.416200
     13 N4          -5.7940    -0.2450    -0.7050 nd         1 RUV      -0.353000
     14 N5          -5.7790     0.3810     0.5220 nd         1 RUV      -0.353000
     15 O1           5.2910     1.2690    -0.8320 o          1 RUV      -0.567100
     16 O2          -1.9630     1.4070    -0.8200 o          1 RUV      -0.545100
     17 H1           4.3830    -1.4190     0.5510 hn         1 RUV       0.152000
     18 H2           2.9140     1.6730    -1.0110 ha         1 RUV       0.136500
     19 H3           0.5050     2.0130    -1.1580 ha         1 RUV       0.126000
     20 H4          -0.1450    -1.8090     0.8010 ha         1 RUV       0.126000
     21 H5           2.2740    -2.1350     0.9400 ha         1 RUV       0.136500
     22 H6          -4.2270    -1.2170    -1.8340 h5         1 RUV       0.069600
     23 H7           6.6240    -1.5180    -0.3830 hc         1 RUV       0.067367
     24 H8           7.5000     0.0640    -0.2420 hc         1 RUV       0.067367
     25 H9           6.6410    -0.7420     1.1370 hc         1 RUV       0.067367
     26 H10         -4.1810     0.7120     1.9410 h5         1 RUV       0.069600
     27 H11         -1.9550    -1.4230     0.6250 hn         1 RUV       0.346500
     28 C9          -1.5170     0.3890    -0.3050 c          1 RUV       0.623700
     29 C1           6.6230    -0.5170     0.0650 c3         1 RUV      -0.182100
@<TRIPOS>BOND
     1     1    10 1   
     2     1    11 1   
     3     1    17 1   
     4     2     8 1   
     5     2     9 1   
     6     2    12 1   
     7     3     4 ar  
     8     3    11 ar  
     9     3    18 1   
    10     4     5 ar  
    11     4    19 1   
    12     5     6 ar  
    13     5    28 1   
    14     6     7 ar  
    15     6    20 1   
    16     7    11 ar  
    17     7    21 1   
    18     8    13 2   
    19     8    22 1   
    20     9    14 2   
    21     9    26 1   
    22    10    15 2   
    23    10    29 1   
    24    12    27 1   
    25    12    28 1   
    26    13    14 1   
    27    16    28 2   
    28    23    29 1   
    29    24    29 1   
    30    25    29 1   
@<TRIPOS>SUBSTRUCTURE
     1 RUV         1 TEMP              0 ****  ****    0 ROOT
