@<TRIPOS>MOLECULE
RUV
   29    30     1     0     0
SMALL
abcg2


@<TRIPOS>ATOM
      1 N1           4.0960    -0.6140     0.0560 ns         1 RUV      -0.149000
      2 N3          -3.6370    -0.3210     0.1510 na         1 RUV      -0.237300
      3 C4           2.2430     0.9480    -0.4150 ca         1 RUV      -0.166000
      4 C5           0.8770     1.1320    -0.5230 ca         1 RUV      -0.034500
      5 C6          -0.0220     0.0950    -0.2900 ca         1 RUV      -0.194600
      6 C7           0.4860    -1.1630     0.0350 ca         1 RUV      -0.034500
      7 C8           1.8470    -1.3630     0.1360 ca         1 RUV      -0.166000
      8 C10         -4.4890    -0.9050    -0.7270 cc         1 RUV       0.390400
      9 C11         -4.3990     0.5310     0.8820 cc         1 RUV       0.390400
     10 C2           5.1850     0.1950    -0.0850 c          1 RUV       0.611100
     11 C3           2.7470    -0.3130    -0.0800 ca         1 RUV       0.018000
     12 N2          -2.2960    -0.5030     0.2220 ns         1 RUV      -0.416200
     13 N4          -5.6880    -0.4530    -0.5310 nd         1 RUV      -0.353000
     14 N5          -5.6310     0.4550     0.4870 nd         1 RUV      -0.353000
     15 O1           5.1170     1.3730    -0.3780 o          1 RUV      -0.567100
     16 O2          -1.9140     1.3050    -1.0680 o          1 RUV      -0.545100
     17 H1           4.2900    -1.5730     0.3010 hn         1 RUV       0.152000
     18 H2           2.9020     1.7800    -0.5920 ha         1 RUV       0.136500
     19 H3           0.5060     2.1140    -0.7880 ha         1 RUV       0.126000
     20 H4          -0.1650    -2.0140     0.1880 ha         1 RUV       0.126000
     21 H5           2.2200    -2.3490     0.3830 ha         1 RUV       0.136500
     22 H6          -4.1780    -1.6350    -1.4560 h5         1 RUV       0.069600
     23 H7           6.4170    -1.5510     0.3890 hc         1 RUV       0.067367
     24 H8           7.1350    -0.3800    -0.7210 hc         1 RUV       0.067367
     25 H9           7.0130     0.0010     0.9880 hc         1 RUV       0.067367
     26 H10         -4.0050     1.1530     1.6700 h5         1 RUV       0.069600
     27 H11         -1.9700    -1.1410     0.9320 hn         1 RUV       0.346500
     28 C9          -1.4680     0.3750    -0.4290 c          1 RUV       0.623700
     29 C1           6.5030    -0.4910     0.1600 c3         1 RUV      -0.182100
@<TRIPOS>BOND
     1     1    10 1   
     2     1    11 1   
     3     1    17 1   
     4     2     8 1   
     5     2     9 1   
     6     2    12 1   
     7     3     4 ar  
     8     3    11 ar  
     9     3    18 1   
    10     4     5 ar  
    11     4    19 1   
    12     5     6 ar  
    13     5    28 1   
    14     6     7 ar  
    15     6    20 1   
    16     7    11 ar  
    17     7    21 1   
    18     8    13 2   
    19     8    22 1   
    20     9    14 2   
    21     9    26 1   
    22    10    15 2   
    23    10    29 1   
    24    12    27 1   
    25    12    28 1   
    26    13    14 1   
    27    16    28 2   
    28    23    29 1   
    29    24    29 1   
    30    25    29 1   
@<TRIPOS>SUBSTRUCTURE
     1 RUV         1 TEMP              0 ****  ****    0 ROOT
