@<TRIPOS>MOLECULE
RUW
   63    64     1     0     0
SMALL
abcg2


@<TRIPOS>ATOM
      1 C2         -64.9570    23.5190    -1.5690 c3         1 RUW      -0.070400
      2 C4         -63.4990    24.3150    -5.9580 ca         1 RUW       0.476900
      3 C6         -62.0050    24.1500    -7.8110 ca         1 RUW       0.173500
      4 C7         -63.2600    23.8680    -7.2780 ca         1 RUW      -0.146600
      5 C8         -63.2670    23.0520    -9.2440 cc         1 RUW       0.386700
      6 C11        -60.6450    25.0550   -10.5400 c3         1 RUW      -0.107100
      7 C16        -64.1480    24.6440    -0.9190 c3         1 RUW      -0.075400
      8 C17        -64.4730    24.8720     0.5590 c3         1 RUW      -0.074400
      9 N1         -64.6940    24.1240    -5.3630 nu         1 RUW      -0.917100
     10 C10        -59.7190    22.8880    -9.5860 c3         1 RUW      -0.107100
     11 C13        -58.6660    27.4840    -4.9340 c3         1 RUW       0.143600
     12 C14        -58.0590    25.1260    -5.6420 c3         1 RUW      -0.091400
     13 C20        -65.7180    24.1930     3.3860 c3         1 RUW      -0.089100
     14 C1         -64.5980    23.2580    -3.0340 c3         1 RUW      -0.105400
     15 C12        -59.1090    26.2490    -5.6990 c3         1 RUW       0.252500
     16 C18        -64.0650    23.7200     1.4780 c3         1 RUW      -0.075400
     17 C19        -64.2580    24.0110     2.9690 c3         1 RUW      -0.075400
     18 C3         -64.9710    24.4120    -3.9660 c3         1 RUW       0.226800
     19 C5         -61.3390    25.1670    -5.9450 ca         1 RUW       0.439900
     20 N2         -62.5210    24.9560    -5.3120 nb         1 RUW      -0.352000
     21 N3         -61.0070    24.7950    -7.1900 nb         1 RUW      -0.295000
     22 N4         -64.0390    23.1780    -8.1920 nd         1 RUW      -0.548100
     23 N5         -62.0220    23.6190    -9.0820 na         1 RUW      -0.298300
     24 N6         -60.4090    25.8240    -5.2080 nu         1 RUW      -0.926100
     25 H23        -66.0260    23.7540    -1.4940 hc         1 RUW       0.038200
     26 H22        -64.8080    22.5940    -1.0080 hc         1 RUW       0.038200
     27 H81        -63.5350    22.5650   -10.1690 h5         1 RUW       0.060800
     28 H113       -61.5470    25.5490   -10.9050 hc         1 RUW       0.050533
     29 H111       -60.2330    25.6410    -9.7180 hc         1 RUW       0.050533
     30 H112       -59.9130    25.0310   -11.3490 hc         1 RUW       0.050533
     31 H152       -57.0620    23.7700    -4.2780 hc         1 RUW       0.033033
     32 H151       -57.3210    25.3770    -3.6020 hc         1 RUW       0.033033
     33 H153       -58.6750    24.2540    -3.7490 hc         1 RUW       0.033033
     34 H161       -63.0800    24.4220    -1.0260 hc         1 RUW       0.040200
     35 H162       -64.3230    25.5780    -1.4600 hc         1 RUW       0.040200
     36 H172       -63.9610    25.7810     0.8960 hc         1 RUW       0.037200
     37 H171       -65.5450    25.0700     0.6590 hc         1 RUW       0.037200
     38 H13        -65.3460    23.5350    -5.8570 hn         1 RUW       0.506000
     39 H103       -59.9770    21.8720    -9.2830 hc         1 RUW       0.050533
     40 H101       -58.9760    22.8340   -10.3830 hc         1 RUW       0.050533
     41 H102       -59.2780    23.4060    -8.7340 hc         1 RUW       0.050533
     42 H132       -58.7150    27.2980    -3.8560 h1         1 RUW       0.029200
     43 H131       -57.6260    27.7080    -5.1940 h1         1 RUW       0.029200
     44 H141       -57.1420    25.4930    -6.1090 hc         1 RUW       0.053700
     45 H142       -58.4230    24.3090    -6.2670 hc         1 RUW       0.053700
     46 H202       -65.8020    24.3440     4.4640 hc         1 RUW       0.031033
     47 H203       -66.1740    25.0540     2.8940 hc         1 RUW       0.031033
     48 H201       -66.3080    23.3100     3.1240 hc         1 RUW       0.031033
     49 H11        -65.1140    22.3570    -3.3800 hc         1 RUW       0.047700
     50 H12        -63.5240    23.0660    -3.1220 hc         1 RUW       0.047700
     51 H121       -59.2300    26.5370    -6.7470 h1         1 RUW       0.084700
     52 H181       -64.6290    22.8170     1.2210 hc         1 RUW       0.037200
     53 H182       -63.0100    23.4860     1.2960 hc         1 RUW       0.037200
     54 H191       -63.8250    23.1890     3.5470 hc         1 RUW       0.036200
     55 H192       -63.6880    24.9080     3.2360 hc         1 RUW       0.036200
     56 H32        -64.4270    25.3140    -3.6990 h1         1 RUW       0.058700
     57 H31        -66.0380    24.6290    -3.8760 h1         1 RUW       0.058700
     58 H91        -61.3700    23.0800   -10.9380 h1         1 RUW       0.049700
     59 H61        -60.7100    26.1330    -4.2990 hn         1 RUW       0.503000
     60 H14        -59.3830    29.2860    -4.6480 ho         1 RUW       0.442000
     61 C9         -60.9540    23.6300   -10.0910 c3         1 RUW       0.109300
     62 O1         -59.5200    28.5740    -5.2850 oh         1 RUW      -0.662000
     63 C15        -57.7630    24.6060    -4.2360 c3         1 RUW      -0.090100
@<TRIPOS>BOND
     1     1     7 1   
     2     1    14 1   
     3     1    25 1   
     4     1    26 1   
     5     2     4 ar  
     6     2     9 1   
     7     2    20 ar  
     8     3     4 ar  
     9     3    21 ar  
    10     3    23 1   
    11     4    22 1   
    12     5    22 2   
    13     5    23 1   
    14     5    27 1   
    15     6    28 1   
    16     6    29 1   
    17     6    30 1   
    18     6    61 1   
    19     7     8 1   
    20     7    34 1   
    21     7    35 1   
    22     8    16 1   
    23     8    36 1   
    24     8    37 1   
    25     9    18 1   
    26     9    38 1   
    27    10    39 1   
    28    10    40 1   
    29    10    41 1   
    30    10    61 1   
    31    11    15 1   
    32    11    42 1   
    33    11    43 1   
    34    11    62 1   
    35    12    15 1   
    36    12    44 1   
    37    12    45 1   
    38    12    63 1   
    39    13    17 1   
    40    13    46 1   
    41    13    47 1   
    42    13    48 1   
    43    14    18 1   
    44    14    49 1   
    45    14    50 1   
    46    15    24 1   
    47    15    51 1   
    48    16    17 1   
    49    16    52 1   
    50    16    53 1   
    51    17    54 1   
    52    17    55 1   
    53    18    56 1   
    54    18    57 1   
    55    19    20 ar  
    56    19    21 ar  
    57    19    24 1   
    58    23    61 1   
    59    24    59 1   
    60    31    63 1   
    61    32    63 1   
    62    33    63 1   
    63    58    61 1   
    64    60    62 1   
@<TRIPOS>SUBSTRUCTURE
     1 RUW         1 TEMP              0 ****  ****    0 ROOT
