@<TRIPOS>MOLECULE
RUW
   63    64     1     0     0
SMALL
No Charge or Current Charge


@<TRIPOS>ATOM
      1 C2         -64.8480    23.5560    -1.6480 c3         1 RUW      -0.070400
      2 C4         -63.5300    24.6000    -6.0230 ca         1 RUW       0.476900
      3 C6         -62.0300    24.1590    -7.8230 ca         1 RUW       0.173500
      4 C7         -63.2790    24.0070    -7.2770 ca         1 RUW      -0.146600
      5 C8         -63.3680    22.9490    -9.1540 cc         1 RUW       0.386700
      6 C11        -60.5190    24.7320   -10.5330 c3         1 RUW      -0.107100
      7 C16        -64.2400    24.7670    -0.8960 c3         1 RUW      -0.075400
      8 C17        -64.6010    24.8330     0.6070 c3         1 RUW      -0.074400
      9 N1         -64.7750    24.4750    -5.4190 nu         1 RUW      -0.917100
     10 C10        -59.7710    22.5770    -9.3600 c3         1 RUW      -0.107100
     11 C13        -58.5120    27.6710    -4.9370 c3         1 RUW       0.143600
     12 C14        -58.1130    25.2360    -5.7350 c3         1 RUW      -0.091400
     13 C20        -65.7140    23.7840     3.4170 c3         1 RUW      -0.089100
     14 C1         -64.4910    23.4990    -3.1520 c3         1 RUW      -0.105400
     15 C12        -59.0660    26.4660    -5.7680 c3         1 RUW       0.252500
     16 C18        -64.0120    23.6810     1.4590 c3         1 RUW      -0.075400
     17 C19        -64.2350    23.8390     2.9820 c3         1 RUW      -0.075400
     18 C3         -65.0920    24.6490    -3.9930 c3         1 RUW       0.226800
     19 C5         -61.3880    25.3750    -6.0040 ca         1 RUW       0.439900
     20 N2         -62.5750    25.2940    -5.3810 nb         1 RUW      -0.352000
     21 N3         -61.0560    24.8480    -7.2010 nb         1 RUW      -0.295000
     22 N4         -64.1360    23.2530    -8.0910 nd         1 RUW      -0.548100
     23 N5         -62.0870    23.4860    -9.0140 na         1 RUW      -0.298300
     24 N6         -60.4300    26.1000    -5.3200 nu         1 RUW      -0.926100
     25 H23        -65.9390    23.5670    -1.5350 hc         1 RUW       0.038200
     26 H22        -64.4930    22.6290    -1.1830 hc         1 RUW       0.038200
     27 H81        -63.6660    22.3670   -10.0180 h5         1 RUW       0.060800
     28 H113       -61.3760    25.2550   -10.9740 hc         1 RUW       0.050533
     29 H111       -60.0860    25.3730    -9.7560 hc         1 RUW       0.050533
     30 H112       -59.7660    24.5930   -11.3170 hc         1 RUW       0.050533
     31 H152       -57.2370    23.7170    -4.4340 hc         1 RUW       0.033033
     32 H151       -57.4210    25.2950    -3.6500 hc         1 RUW       0.033033
     33 H153       -58.8430    24.2570    -3.9110 hc         1 RUW       0.033033
     34 H161       -63.1480    24.7530    -1.0060 hc         1 RUW       0.040200
     35 H162       -64.5890    25.6950    -1.3650 hc         1 RUW       0.040200
     36 H172       -64.2350    25.7880     1.0070 hc         1 RUW       0.037200
     37 H171       -65.6930    24.8480     0.7090 hc         1 RUW       0.037200
     38 H13        -65.4210    23.9150    -5.9770 hn         1 RUW       0.506000
     39 H103       -60.1070    21.6020    -8.9880 hc         1 RUW       0.050533
     40 H101       -59.0030    22.4030   -10.1220 hc         1 RUW       0.050533
     41 H102       -59.3070    23.1210    -8.5290 hc         1 RUW       0.050533
     42 H132       -58.3910    27.3650    -3.8900 h1         1 RUW       0.029200
     43 H131       -57.5170    27.9340    -5.3200 h1         1 RUW       0.029200
     44 H141       -57.1380    25.5410    -6.1350 hc         1 RUW       0.053700
     45 H142       -58.4880    24.4670    -6.4190 hc         1 RUW       0.053700
     46 H202       -65.7900    23.8210     4.5110 hc         1 RUW       0.031033
     47 H203       -66.2780    24.6330     3.0120 hc         1 RUW       0.031033
     48 H201       -66.1860    22.8560     3.0730 hc         1 RUW       0.031033
     49 H11        -64.8510    22.5440    -3.5550 hc         1 RUW       0.047700
     50 H12        -63.4000    23.4940    -3.2600 hc         1 RUW       0.047700
     51 H121       -59.1160    26.8120    -6.8110 h1         1 RUW       0.084700
     52 H181       -64.4410    22.7250     1.1380 hc         1 RUW       0.037200
     53 H182       -62.9320    23.6200     1.2730 hc         1 RUW       0.037200
     54 H191       -63.6910    23.0390     3.4980 hc         1 RUW       0.036200
     55 H192       -63.7940    24.7850     3.3200 hc         1 RUW       0.036200
     56 H32        -64.7120    25.6170    -3.6370 h1         1 RUW       0.058700
     57 H31        -66.1830    24.6530    -3.8550 h1         1 RUW       0.058700
     58 H91        -61.3240    22.7770   -10.8060 h1         1 RUW       0.049700
     59 H61        -60.7990    26.6380    -4.5380 hn         1 RUW       0.503000
     60 H14        -58.9670    29.5310    -4.4780 ho         1 RUW       0.442000
     61 C9         -60.9560    23.3670    -9.9570 c3         1 RUW       0.109300
     62 O1         -59.3860    28.8160    -5.0080 oh         1 RUW      -0.662000
     63 C15        -57.8930    24.5910    -4.3450 c3         1 RUW      -0.090100
@<TRIPOS>BOND
     1     1     7 1   
     2     1    14 1   
     3     1    25 1   
     4     1    26 1   
     5     2     4 ar  
     6     2     9 1   
     7     2    20 ar  
     8     3     4 ar  
     9     3    21 ar  
    10     3    23 1   
    11     4    22 1   
    12     5    22 2   
    13     5    23 1   
    14     5    27 1   
    15     6    28 1   
    16     6    29 1   
    17     6    30 1   
    18     6    61 1   
    19     7     8 1   
    20     7    34 1   
    21     7    35 1   
    22     8    16 1   
    23     8    36 1   
    24     8    37 1   
    25     9    18 1   
    26     9    38 1   
    27    10    39 1   
    28    10    40 1   
    29    10    41 1   
    30    10    61 1   
    31    11    15 1   
    32    11    42 1   
    33    11    43 1   
    34    11    62 1   
    35    12    15 1   
    36    12    44 1   
    37    12    45 1   
    38    12    63 1   
    39    13    17 1   
    40    13    46 1   
    41    13    47 1   
    42    13    48 1   
    43    14    18 1   
    44    14    49 1   
    45    14    50 1   
    46    15    24 1   
    47    15    51 1   
    48    16    17 1   
    49    16    52 1   
    50    16    53 1   
    51    17    54 1   
    52    17    55 1   
    53    18    56 1   
    54    18    57 1   
    55    19    20 ar  
    56    19    21 ar  
    57    19    24 1   
    58    23    61 1   
    59    24    59 1   
    60    31    63 1   
    61    32    63 1   
    62    33    63 1   
    63    58    61 1   
    64    60    62 1   
@<TRIPOS>SUBSTRUCTURE
     1 RUW         1 TEMP              0 ****  ****    0 ROOT
