@<TRIPOS>MOLECULE
RUY
   24    25     1     0     0
SMALL
No Charge or Current Charge


@<TRIPOS>ATOM
      1 N1           0.5120     0.1840    -0.1110 nh         1 RUY      -0.743300
      2 N3          -1.5120     1.4180    -0.1890 nc         1 RUY      -0.390300
      3 C4           1.3600     1.4030     0.0320 c6         1 RUY       0.194300
      4 C5           2.7330     1.0450     0.6540 c6         1 RUY      -0.080400
      5 C6          -0.9000     0.2660    -0.0280 cd         1 RUY       0.439900
      6 C7          -1.8450    -0.7910     0.2370 cd         1 RUY       0.446900
      7 C1           3.4450    -0.0710    -0.1470 c6         1 RUY      -0.076400
      8 C2           2.5160    -1.2990    -0.2970 c6         1 RUY      -0.080400
      9 C3           1.1550    -0.8950    -0.9140 c6         1 RUY       0.194300
     10 N2          -3.0770    -0.3610     0.2460 nc         1 RUY      -0.407300
     11 N4          -1.5940    -2.1120     0.5200 nv         1 RUY      -1.017900
     12 O1          -2.8910     1.0390    -0.0280 os         1 RUY       0.098600
     13 H1           1.5160     1.8700    -0.9530 h1         1 RUY       0.050200
     14 H2           0.8710     2.1500     0.6740 h1         1 RUY       0.050200
     15 H3           3.3660     1.9420     0.6960 hc         1 RUY       0.049950
     16 H4           2.5870     0.7180     1.6930 hc         1 RUY       0.049950
     17 H5           3.7250     0.3070    -1.1410 hc         1 RUY       0.043700
     18 H6           4.3780    -0.3610     0.3550 hc         1 RUY       0.043700
     19 H7           2.9970    -2.0600    -0.9270 hc         1 RUY       0.049950
     20 H8           2.3510    -1.7620     0.6850 hc         1 RUY       0.049950
     21 H9           0.5140    -1.7840    -0.9880 h1         1 RUY       0.050200
     22 H10          1.3190    -0.5400    -1.9420 h1         1 RUY       0.050200
     23 H11         -0.6540    -2.3560     0.8170 hn         1 RUY       0.466500
     24 H12         -2.3520    -2.6620     0.9140 hn         1 RUY       0.466500
@<TRIPOS>BOND
     1     1     3 1   
     2     1     5 1   
     3     1     9 1   
     4     2     5 2   
     5     2    12 1   
     6     3     4 1   
     7     3    13 1   
     8     3    14 1   
     9     4     7 1   
    10     4    15 1   
    11     4    16 1   
    12     5     6 1   
    13     6    10 2   
    14     6    11 1   
    15     7     8 1   
    16     7    17 1   
    17     7    18 1   
    18     8     9 1   
    19     8    19 1   
    20     8    20 1   
    21     9    21 1   
    22     9    22 1   
    23    10    12 1   
    24    11    23 1   
    25    11    24 1   
@<TRIPOS>SUBSTRUCTURE
     1 RUY         1 TEMP              0 ****  ****    0 ROOT
