@<TRIPOS>MOLECULE
RUY
   24    25     1     0     0
SMALL
abcg2


@<TRIPOS>ATOM
      1 N1           0.5460     0.0980     0.0540 nh         1 RUY      -0.743300
      2 N3          -1.4420     1.3430    -0.2800 nc         1 RUY      -0.390300
      3 C4           1.3250     1.3280     0.1260 c6         1 RUY       0.194300
      4 C5           2.7240     1.0230     0.6410 c6         1 RUY      -0.080400
      5 C6          -0.8120     0.2380    -0.0360 cd         1 RUY       0.439900
      6 C7          -1.8020    -0.7840     0.2080 cd         1 RUY       0.446900
      7 C1           3.4130    -0.0380    -0.2080 c6         1 RUY      -0.076400
      8 C2           2.5350    -1.2800    -0.3160 c6         1 RUY      -0.080400
      9 C3           1.1500    -0.9140    -0.8170 c6         1 RUY       0.194300
     10 N2          -2.9720    -0.2440     0.0950 nc         1 RUY      -0.407300
     11 N4          -1.5670    -2.0980     0.4800 nv         1 RUY      -1.017900
     12 O1          -2.7590     1.0640    -0.2010 os         1 RUY       0.098600
     13 H1           1.3830     1.8120    -0.8590 h1         1 RUY       0.050200
     14 H2           0.8210     2.0230     0.7980 h1         1 RUY       0.050200
     15 H3           3.3050     1.9470     0.6520 hc         1 RUY       0.049950
     16 H4           2.6520     0.6780     1.6760 hc         1 RUY       0.049950
     17 H5           3.6040     0.3600    -1.2100 hc         1 RUY       0.043700
     18 H6           4.3850    -0.2930     0.2180 hc         1 RUY       0.043700
     19 H7           2.9770    -2.0100    -0.9970 hc         1 RUY       0.049950
     20 H8           2.4490    -1.7610     0.6630 hc         1 RUY       0.049950
     21 H9           0.5110    -1.7960    -0.8530 h1         1 RUY       0.050200
     22 H10          1.2170    -0.5270    -1.8430 h1         1 RUY       0.050200
     23 H11         -0.7540    -2.2670     1.0540 hn         1 RUY       0.466500
     24 H12         -2.3690    -2.6130     0.8120 hn         1 RUY       0.466500
@<TRIPOS>BOND
     1     1     3 1   
     2     1     5 1   
     3     1     9 1   
     4     2     5 2   
     5     2    12 1   
     6     3     4 1   
     7     3    13 1   
     8     3    14 1   
     9     4     7 1   
    10     4    15 1   
    11     4    16 1   
    12     5     6 1   
    13     6    10 2   
    14     6    11 1   
    15     7     8 1   
    16     7    17 1   
    17     7    18 1   
    18     8     9 1   
    19     8    19 1   
    20     8    20 1   
    21     9    21 1   
    22     9    22 1   
    23    10    12 1   
    24    11    23 1   
    25    11    24 1   
@<TRIPOS>SUBSTRUCTURE
     1 RUY         1 TEMP              0 ****  ****    0 ROOT
