@<TRIPOS>MOLECULE
RUZ
   54    56     1     0     0
SMALL
bcc


@<TRIPOS>ATOM
      1 C1         -11.4530   -32.8300     0.6620 ca         1 RUZ      -0.202000
      2 C2         -12.2570   -32.4080     1.7320 ca         1 RUZ      -0.069300
      3 C3         -11.8710   -31.3390     2.5150 ca         1 RUZ      -0.088000
      4 C4         -10.6530   -30.7270     2.2100 ca         1 RUZ       0.094400
      5 C5          -9.8380   -31.1760     1.1610 ca         1 RUZ      -0.116200
      6 C6         -10.2370   -32.2390     0.3340 ca         1 RUZ       0.162600
      7 C8          -8.9580   -29.4540     2.2070 cc         1 RUZ       0.425700
      8 N          -11.4530   -30.4860    -5.7470 n8         1 RUZ      -0.880800
      9 CA         -10.0880   -30.8740    -5.9820 c3         1 RUZ       0.102500
     10 CB          -9.1960   -29.6510    -6.1640 c3         1 RUZ       0.139400
     11 OG          -9.0650   -29.0240    -4.9100 oh         1 RUZ      -0.601800
     12 C           -9.5100   -31.7580    -4.8730 c          1 RUZ       0.669100
     13 O          -10.0850   -32.0200    -3.8470 o          1 RUZ      -0.539100
     14 N3S         -8.2390   -32.2350    -5.1400 ns         1 RUZ      -0.694300
     15 S           -7.3540   -33.1730    -4.0950 s6         1 RUZ       1.582100
     16 O1S         -6.0740   -33.3360    -4.7350 o          1 RUZ      -0.607300
     17 O2S         -8.1100   -34.3080    -3.6460 o          1 RUZ      -0.607300
     18 O5          -7.2210   -32.2550    -2.8100 os         1 RUZ      -0.545500
     19 C11         -6.4070   -30.4340    -1.5070 c5         1 RUZ       0.140100
     20 O4          -7.6750   -30.1840    -0.9050 os         1 RUZ      -0.396600
     21 C7          -7.4890   -30.3390     0.4810 c5         1 RUZ       0.234800
     22 C9          -6.6330   -31.6020     0.5850 c5         1 RUZ       0.064100
     23 O2          -6.0080   -31.7510     1.8220 oh         1 RUZ      -0.589800
     24 C10         -5.6170   -31.3420    -0.5380 c5         1 RUZ       0.126100
     25 O3          -4.5040   -30.6180    -0.0860 oh         1 RUZ      -0.597800
     26 N7          -8.7350   -30.3250     1.1830 na         1 RUZ      -0.158300
     27 N9         -10.0700   -29.6510     2.8400 nd         1 RUZ      -0.573100
     28 N6          -9.4690   -32.7140    -0.7080 nv         1 RUZ      -0.816200
     29 C2M        -13.5270   -33.1730     1.9940 c3         1 RUZ       0.188700
     30 O2M        -14.3860   -32.4290     2.8210 oh         1 RUZ      -0.592800
     31 H1         -11.8000   -33.6520     0.0430 ha         1 RUZ       0.128000
     32 H2         -12.4740   -30.9730     3.3340 ha         1 RUZ       0.163000
     33 H3          -8.2340   -28.6860     2.4410 h5         1 RUZ       0.059800
     34 H5         -11.5420   -30.0170    -4.8540 hn         1 RUZ       0.369300
     35 H7         -10.0450   -31.4470    -6.9150 h1         1 RUZ       0.081700
     36 H8          -8.2240   -29.9450    -6.5760 h1         1 RUZ       0.035200
     37 H9          -9.6720   -28.9990    -6.9050 h1         1 RUZ       0.035200
     38 H10         -8.5150   -28.2410    -5.0130 ho         1 RUZ       0.415000
     39 H11         -7.7870   -32.0310    -6.0230 hn         1 RUZ       0.346500
     40 H12         -5.6020   -31.0550    -3.3710 h1         1 RUZ       0.068700
     41 H13         -7.2060   -30.2920    -3.4980 h1         1 RUZ       0.068700
     42 H14         -5.8590   -29.4890    -1.6120 h1         1 RUZ       0.078700
     43 H15         -6.9140   -29.4980     0.8900 h2         1 RUZ       0.073700
     44 H16         -7.2410   -32.4740     0.3190 h1         1 RUZ       0.095700
     45 H17         -6.5370   -32.3320     2.3750 ho         1 RUZ       0.430000
     46 H18         -5.3100   -32.2790    -1.0150 h1         1 RUZ       0.065700
     47 H19         -4.0440   -31.1510     0.5720 ho         1 RUZ       0.433000
     48 H20         -8.9710   -32.0100    -1.2280 hn         1 RUZ       0.403300
     49 H21         -9.9670   -33.3200    -1.3430 hn         1 RUZ       0.403300
     50 H22        -14.0000   -33.4160     1.0340 h1         1 RUZ       0.023200
     51 H23        -13.2630   -34.1340     2.4570 h1         1 RUZ       0.023200
     52 H24        -15.1070   -33.0030     3.0920 ho         1 RUZ       0.403000
     53 C12         -6.5840   -30.9650    -2.9030 c3         1 RUZ       0.175400
     54 H4         -12.0520   -31.3000    -5.7060 hn         1 RUZ       0.369300
@<TRIPOS>BOND
     1     1     2 ar  
     2     1     6 ar  
     3     1    31 1   
     4     2     3 ar  
     5     2    29 1   
     6     3     4 ar  
     7     3    32 1   
     8     4     5 ar  
     9     4    27 1   
    10     5     6 ar  
    11     5    26 1   
    12     6    28 1   
    13     7    26 1   
    14     7    27 2   
    15     7    33 1   
    16     8     9 1   
    17     8    34 1   
    18     8    54 1   
    19     9    10 1   
    20     9    12 1   
    21     9    35 1   
    22    10    11 1   
    23    10    36 1   
    24    10    37 1   
    25    11    38 1   
    26    12    13 2   
    27    12    14 1   
    28    14    15 1   
    29    14    39 1   
    30    15    16 2   
    31    15    17 2   
    32    15    18 1   
    33    18    53 1   
    34    19    20 1   
    35    19    24 1   
    36    19    42 1   
    37    19    53 1   
    38    20    21 1   
    39    21    22 1   
    40    21    26 1   
    41    21    43 1   
    42    22    23 1   
    43    22    24 1   
    44    22    44 1   
    45    23    45 1   
    46    24    25 1   
    47    24    46 1   
    48    25    47 1   
    49    28    48 1   
    50    28    49 1   
    51    29    30 1   
    52    29    50 1   
    53    29    51 1   
    54    30    52 1   
    55    40    53 1   
    56    41    53 1   
@<TRIPOS>SUBSTRUCTURE
     1 RUZ         1 TEMP              0 ****  ****    0 ROOT
