@<TRIPOS>MOLECULE
RUZ
   54    56     1     0     0
SMALL
No Charge or Current Charge


@<TRIPOS>ATOM
      1 C1         -11.1510   -32.0990    -0.2080 ca         1 RUZ      -0.184000
      2 C2         -12.0890   -31.4380     0.6180 ca         1 RUZ      -0.069300
      3 C3         -11.6370   -30.4750     1.5470 ca         1 RUZ      -0.070000
      4 C4         -10.2650   -30.1930     1.6160 ca         1 RUZ       0.094400
      5 C5          -9.3650   -30.8210     0.7960 ca         1 RUZ      -0.116200
      6 C6          -9.7830   -31.7880    -0.1420 ca         1 RUZ       0.301000
      7 C8          -8.3480   -29.3610     2.1290 cc         1 RUZ       0.425700
      8 N          -11.6860   -31.3290    -5.8570 n8         1 RUZ      -0.991200
      9 CA         -10.8280   -31.0120    -4.6500 c3         1 RUZ       0.102500
     10 CB         -11.7010   -30.6430    -3.4080 c3         1 RUZ       0.162600
     11 OG         -12.7420   -31.6150    -3.1850 oh         1 RUZ      -0.664000
     12 C           -9.7450   -32.0950    -4.2870 c          1 RUZ       0.602100
     13 O           -9.9980   -33.1040    -3.6450 o          1 RUZ      -0.539100
     14 N3S         -8.4920   -31.8150    -4.7450 ns         1 RUZ      -0.627300
     15 S           -7.1000   -32.7050    -4.5650 s6         1 RUZ       1.440500
     16 O1S         -6.1070   -32.1660    -5.4980 o          1 RUZ      -0.536500
     17 O2S         -7.4320   -34.1330    -4.5490 o          1 RUZ      -0.536500
     18 O5          -6.7230   -32.2330    -3.0360 os         1 RUZ      -0.568700
     19 C11         -5.5810   -30.8200    -1.4120 c5         1 RUZ       0.163300
     20 O4          -6.8680   -30.3990    -0.9070 os         1 RUZ      -0.443000
     21 C7          -6.8080   -30.5370     0.5160 c5         1 RUZ       0.287300
     22 C9          -6.1630   -31.9460     0.7090 c5         1 RUZ       0.087300
     23 O2          -5.5510   -32.1460     2.0090 oh         1 RUZ      -0.712000
     24 C10         -5.0820   -31.9430    -0.4260 c5         1 RUZ       0.149300
     25 O3          -3.8280   -31.6210     0.1780 oh         1 RUZ      -0.720000
     26 N7          -8.1260   -30.2940     1.1130 na         1 RUZ      -0.187600
     27 N9          -9.6510   -29.2780     2.4600 nd         1 RUZ      -0.573100
     28 N6          -8.9320   -32.4090    -1.0050 nv         1 RUZ      -1.065000
     29 C2M        -13.5730   -31.7500     0.4910 c3         1 RUZ       0.211900
     30 O2M        -14.0800   -31.2440    -0.7510 oh         1 RUZ      -0.655000
     31 H1         -11.4970   -32.8410    -0.9230 ha         1 RUZ       0.110000
     32 H2         -12.3340   -29.9520     2.1960 ha         1 RUZ       0.145000
     33 H3          -7.5420   -28.7850     2.5690 h5         1 RUZ       0.059800
     34 H5         -12.3420   -32.0730    -5.5800 hn         1 RUZ       0.424500
     35 H7         -10.2550   -30.1070    -4.8970 h1         1 RUZ       0.081700
     36 H8         -11.0550   -30.5530    -2.5250 h1         1 RUZ       0.035200
     37 H9         -12.1520   -29.6570    -3.5790 h1         1 RUZ       0.035200
     38 H10        -13.1460   -31.4110    -2.3010 ho         1 RUZ       0.454000
     39 H11         -8.3200   -30.9830    -5.2800 hn         1 RUZ       0.346500
     40 H12         -4.7200   -31.6090    -3.2420 h1         1 RUZ       0.068700
     41 H13         -5.9380   -30.3340    -3.4850 h1         1 RUZ       0.068700
     42 H14         -4.9020   -29.9570    -1.3600 h1         1 RUZ       0.078700
     43 H15         -6.1380   -29.7670     0.9210 h2         1 RUZ       0.073700
     44 H16         -6.9020   -32.7350     0.5110 h1         1 RUZ       0.095700
     45 H17         -6.2680   -32.3930     2.6440 ho         1 RUZ       0.529000
     46 H18         -5.0360   -32.9250    -0.9190 h1         1 RUZ       0.065700
     47 H19         -4.0350   -31.7750     1.1410 ho         1 RUZ       0.532000
     48 H20         -8.0700   -31.9120    -1.2340 hn         1 RUZ       0.458500
     49 H21         -9.3440   -32.9050    -1.7960 hn         1 RUZ       0.458500
     50 H22        -13.7190   -32.8370     0.5460 h1         1 RUZ       0.023200
     51 H23        -14.1160   -31.3010     1.3330 h1         1 RUZ       0.023200
     52 H24        -15.0580   -31.3360    -0.7070 ho         1 RUZ       0.442000
     53 C12         -5.6940   -31.2320    -2.9010 c3         1 RUZ       0.198600
     54 H4         -11.1150   -31.7700    -6.5890 hn         1 RUZ       0.424500
@<TRIPOS>BOND
     1     1     2 ar  
     2     1     6 ar  
     3     1    31 1   
     4     2     3 ar  
     5     2    29 1   
     6     3     4 ar  
     7     3    32 1   
     8     4     5 ar  
     9     4    27 1   
    10     5     6 ar  
    11     5    26 1   
    12     6    28 1   
    13     7    26 1   
    14     7    27 2   
    15     7    33 1   
    16     8     9 1   
    17     8    34 1   
    18     8    54 1   
    19     9    10 1   
    20     9    12 1   
    21     9    35 1   
    22    10    11 1   
    23    10    36 1   
    24    10    37 1   
    25    11    38 1   
    26    12    13 2   
    27    12    14 1   
    28    14    15 1   
    29    14    39 1   
    30    15    16 2   
    31    15    17 2   
    32    15    18 1   
    33    18    53 1   
    34    19    20 1   
    35    19    24 1   
    36    19    42 1   
    37    19    53 1   
    38    20    21 1   
    39    21    22 1   
    40    21    26 1   
    41    21    43 1   
    42    22    23 1   
    43    22    24 1   
    44    22    44 1   
    45    23    45 1   
    46    24    25 1   
    47    24    46 1   
    48    25    47 1   
    49    28    48 1   
    50    28    49 1   
    51    29    30 1   
    52    29    50 1   
    53    29    51 1   
    54    30    52 1   
    55    40    53 1   
    56    41    53 1   
@<TRIPOS>SUBSTRUCTURE
     1 RUZ         1 TEMP              0 ****  ****    0 ROOT
