@<TRIPOS>MOLECULE
RV0
   46    49     1     0     0
SMALL
abcg2


@<TRIPOS>ATOM
      1 N1         -20.2750     4.4130    27.3050 ns         1 RV0      -0.155000
      2 C4         -22.0790     4.4890    31.6440 ca         1 RV0      -0.280500
      3 C5         -22.0230     3.7390    32.8180 ca         1 RV0       0.001000
      4 C6         -21.8250     2.3710    32.7640 ca         1 RV0      -0.109000
      5 C7         -21.6780     1.7760    31.5160 ca         1 RV0       0.169000
      6 C8         -21.7370     2.5140    30.3470 ca         1 RV0      -0.117000
      7 C10        -20.5480     4.7740    28.5760 c          1 RV0       0.599100
      8 C13        -16.4790     4.5400    25.6340 ca         1 RV0       0.367900
      9 C15        -16.4850     7.0140    25.5460 ca         1 RV0      -0.080000
     10 C17        -18.4420     8.1950    26.3190 ca         1 RV0      -0.084000
     11 O2         -19.6900     5.2350    29.3260 o          1 RV0      -0.588100
     12 C2         -22.0110     4.6540    29.0610 c6         1 RV0      -0.123700
     13 C9         -21.9570     3.8920    30.3860 ca         1 RV0       0.023700
     14 S          -22.3070     6.2380    31.8130 sy         1 RV0       1.163600
     15 O          -21.3730     6.7540    32.7850 o          1 RV0      -0.533500
     16 O1         -23.7150     6.4920    32.0100 o          1 RV0      -0.533500
     17 N          -21.8770     6.8310    30.3490 n7         1 RV0      -0.825300
     18 C3         -22.5060     6.1160    29.2340 c6         1 RV0       0.177800
     19 C1         -22.9550     3.9610    28.0500 c3         1 RV0      -0.067400
     20 C          -24.3620     3.6720    28.5740 c3         1 RV0      -0.095100
     21 C11        -18.9740     4.5180    26.7380 ca         1 RV0      -0.090000
     22 C19        -18.4130     5.7850    26.4350 ca         1 RV0       0.001000
     23 C18        -19.0690     7.0190    26.6460 ca         1 RV0      -0.095000
     24 C16        -17.1400     8.1970    25.7700 ca         1 RV0      -0.106000
     25 C14        -17.1080     5.7860    25.8690 ca         1 RV0      -0.093000
     26 N2         -17.0270     3.3780    25.9070 nb         1 RV0      -0.654000
     27 C12        -18.2650     3.3770    26.4630 ca         1 RV0       0.322900
     28 H1         -20.9880     3.9660    26.7490 hn         1 RV0       0.164000
     29 H2         -22.1220     4.2290    33.7780 ha         1 RV0       0.139000
     30 H3         -21.7780     1.7810    33.6670 ha         1 RV0       0.140000
     31 H4         -21.6160     2.0110    29.3980 ha         1 RV0       0.127000
     32 H5         -15.4830     4.5310    25.2000 h4         1 RV0       0.024100
     33 H6         -15.4890     7.0000    25.1200 ha         1 RV0       0.120000
     34 H7         -18.9500     9.1370    26.4820 ha         1 RV0       0.119000
     35 H8         -20.8610     6.8310    30.2690 hn         1 RV0       0.502000
     36 H9         -22.3090     6.6750    28.3210 h1         1 RV0       0.085200
     37 H10        -23.5810     6.1240    29.3960 h1         1 RV0       0.085200
     38 H11        -22.5120     3.0190    27.7210 hc         1 RV0       0.045700
     39 H12        -23.0270     4.6010    27.1680 hc         1 RV0       0.045700
     40 H13        -24.9580     3.2200    27.7810 hc         1 RV0       0.047367
     41 H14        -24.3410     2.9770    29.4140 hc         1 RV0       0.047367
     42 H15        -24.8780     4.5760    28.8980 hc         1 RV0       0.047367
     43 H16        -20.0660     7.0320    27.0610 ha         1 RV0       0.116000
     44 H17        -16.6660     9.1390    25.5240 ha         1 RV0       0.120000
     45 H18        -18.6950     2.4090    26.6930 h4         1 RV0       0.022100
     46 CL         -21.4110     0.0550    31.4190 cl         1 RV0      -0.193000
@<TRIPOS>BOND
     1     1     7 1   
     2     1    21 1   
     3     1    28 1   
     4     2     3 ar  
     5     2    13 ar  
     6     2    14 1   
     7     3     4 ar  
     8     3    29 1   
     9     4     5 ar  
    10     4    30 1   
    11     5     6 ar  
    12     5    46 1   
    13     6    13 ar  
    14     6    31 1   
    15     7    11 2   
    16     7    12 1   
    17     8    25 ar  
    18     8    26 ar  
    19     8    32 1   
    20     9    24 ar  
    21     9    25 ar  
    22     9    33 1   
    23    10    23 ar  
    24    10    24 ar  
    25    10    34 1   
    26    12    13 1   
    27    12    18 1   
    28    12    19 1   
    29    14    15 2   
    30    14    16 2   
    31    14    17 1   
    32    17    18 1   
    33    17    35 1   
    34    18    36 1   
    35    18    37 1   
    36    19    20 1   
    37    19    38 1   
    38    19    39 1   
    39    20    40 1   
    40    20    41 1   
    41    20    42 1   
    42    21    22 ar  
    43    21    27 ar  
    44    22    23 ar  
    45    22    25 ar  
    46    23    43 1   
    47    24    44 1   
    48    26    27 ar  
    49    27    45 1   
@<TRIPOS>SUBSTRUCTURE
     1 RV0         1 TEMP              0 ****  ****    0 ROOT
