@<TRIPOS>MOLECULE
RV0
   46    49     1     0     0
SMALL
No Charge or Current Charge


@<TRIPOS>ATOM
      1 N1         -20.0160     4.8400    27.6530 ns         1 RV0      -0.155000
      2 C4         -21.9970     4.5450    31.5670 ca         1 RV0      -0.280500
      3 C5         -21.9950     4.0500    32.8890 ca         1 RV0       0.001000
      4 C6         -22.0420     2.6710    33.1330 ca         1 RV0      -0.109000
      5 C7         -22.0840     1.7800    32.0570 ca         1 RV0       0.169000
      6 C8         -22.0850     2.2610    30.7410 ca         1 RV0      -0.117000
      7 C10        -20.6590     3.8110    28.3420 c          1 RV0       0.599100
      8 C13        -16.3620     4.9650    25.5820 ca         1 RV0       0.367900
      9 C15        -16.5110     7.3920    25.3480 ca         1 RV0      -0.080000
     10 C17        -18.4240     8.5780    26.2680 ca         1 RV0      -0.084000
     11 O2         -20.1660     2.6960    28.4530 o          1 RV0      -0.588100
     12 C2         -22.0530     4.1470    28.9860 c6         1 RV0      -0.123700
     13 C9         -22.0480     3.6500    30.4640 ca         1 RV0       0.023700
     14 S          -21.9230     6.3290    31.3770 sy         1 RV0       1.163600
     15 O          -20.7420     6.8300    32.0800 o          1 RV0      -0.533500
     16 O1         -23.2440     6.9170    31.6110 o          1 RV0      -0.533500
     17 N          -21.5970     6.5300    29.7630 n7         1 RV0      -0.825300
     18 C3         -22.4160     5.6640    28.8920 c6         1 RV0       0.177800
     19 C1         -23.1150     3.3550    28.1240 c3         1 RV0      -0.067400
     20 C          -24.5700     3.3360    28.6560 c3         1 RV0      -0.095100
     21 C11        -18.7710     4.8970    26.9510 ca         1 RV0      -0.090000
     22 C19        -18.2760     6.1470    26.5040 ca         1 RV0       0.001000
     23 C18        -18.9620     7.3640    26.7300 ca         1 RV0      -0.095000
     24 C16        -17.2010     8.5930    25.5780 ca         1 RV0      -0.106000
     25 C14        -17.0460     6.1730    25.8090 ca         1 RV0      -0.093000
     26 N2         -16.8270     3.7660    25.9940 nb         1 RV0      -0.654000
     27 C12        -18.0030     3.7390    26.6610 ca         1 RV0       0.322900
     28 H1         -20.5370     5.7050    27.6180 hn         1 RV0       0.164000
     29 H2         -21.9570     4.7360    33.7350 ha         1 RV0       0.139000
     30 H3         -22.0410     2.2950    34.1530 ha         1 RV0       0.140000
     31 H4         -22.1060     1.5340    29.9370 ha         1 RV0       0.127000
     32 H5         -15.4120     4.9550    25.0480 h4         1 RV0       0.024100
     33 H6         -15.5640     7.4100    24.8130 ha         1 RV0       0.120000
     34 H7         -18.9570     9.5100    26.4450 ha         1 RV0       0.119000
     35 H8         -20.6090     6.2820    29.7450 hn         1 RV0       0.502000
     36 H9         -22.3300     6.0050    27.8490 h1         1 RV0       0.085200
     37 H10        -23.4750     5.8140    29.1540 h1         1 RV0       0.085200
     38 H11        -22.8040     2.3130    27.9900 hc         1 RV0       0.045700
     39 H12        -23.1380     3.7670    27.1060 hc         1 RV0       0.045700
     40 H13        -25.1920     2.6960    28.0190 hc         1 RV0       0.047367
     41 H14        -24.6180     2.9390    29.6760 hc         1 RV0       0.047367
     42 H15        -25.0160     4.3360    28.6520 hc         1 RV0       0.047367
     43 H16        -19.9090     7.3910    27.2600 ha         1 RV0       0.116000
     44 H17        -16.7880     9.5350    25.2220 ha         1 RV0       0.120000
     45 H18        -18.3290     2.7440    26.9490 h4         1 RV0       0.022100
     46 Cl         -22.1330     0.0470    32.3570 cl         1 RV0      -0.193000
@<TRIPOS>BOND
     1     1     7 1   
     2     1    21 1   
     3     1    28 1   
     4     2     3 ar  
     5     2    13 ar  
     6     2    14 1   
     7     3     4 ar  
     8     3    29 1   
     9     4     5 ar  
    10     4    30 1   
    11     5     6 ar  
    12     5    46 1   
    13     6    13 ar  
    14     6    31 1   
    15     7    11 2   
    16     7    12 1   
    17     8    25 ar  
    18     8    26 ar  
    19     8    32 1   
    20     9    24 ar  
    21     9    25 ar  
    22     9    33 1   
    23    10    23 ar  
    24    10    24 ar  
    25    10    34 1   
    26    12    13 1   
    27    12    18 1   
    28    12    19 1   
    29    14    15 2   
    30    14    16 2   
    31    14    17 1   
    32    17    18 1   
    33    17    35 1   
    34    18    36 1   
    35    18    37 1   
    36    19    20 1   
    37    19    38 1   
    38    19    39 1   
    39    20    40 1   
    40    20    41 1   
    41    20    42 1   
    42    21    22 ar  
    43    21    27 ar  
    44    22    23 ar  
    45    22    25 ar  
    46    23    43 1   
    47    24    44 1   
    48    26    27 ar  
    49    27    45 1   
@<TRIPOS>SUBSTRUCTURE
     1 RV0         1 TEMP              0 ****  ****    0 ROOT
