@<TRIPOS>MOLECULE
RV1
   28    29     1     0     0
SMALL
No Charge or Current Charge


@<TRIPOS>ATOM
      1 C           -3.1290    -1.2870    -0.1550 ca         1 RV1       0.391000
      2 N           -4.1220    -2.2160    -0.2500 nv         1 RV1      -1.105000
      3 O            0.4070     2.4920    -1.1280 o          1 RV1      -0.535500
      4 S            0.2320     1.8400     0.1750 sy         1 RV1       1.195300
      5 C1          -2.7370    -0.8120     1.1010 ca         1 RV1      -0.227000
      6 N1           1.6090     0.9400     0.4490 ns         1 RV1      -0.579300
      7 O1           0.0340     2.6180     1.4030 o          1 RV1      -0.535500
      8 C2          -1.7140     0.1440     1.2070 ca         1 RV1       0.054000
      9 O2           1.7740    -0.2260    -1.4960 o          1 RV1      -0.569100
     10 C3          -1.0850     0.6250     0.0420 ca         1 RV1      -0.377500
     11 C4          -1.4790     0.1430    -1.2220 ca         1 RV1       0.054000
     12 C5          -2.5040    -0.8130    -1.3120 ca         1 RV1      -0.227000
     13 C6           2.1810     0.0320    -0.3740 c          1 RV1       0.667100
     14 C7           3.3880    -0.6410     0.2260 cx         1 RV1      -0.252700
     15 C8           3.2050    -1.5090     1.4560 cx         1 RV1      -0.094400
     16 C9           3.5140    -2.1490     0.1230 cx         1 RV1      -0.094400
     17 HN          -4.4260    -2.6990     0.5930 hn         1 RV1       0.481500
     18 HNA         -4.2620    -2.7020    -1.1330 hn         1 RV1       0.481500
     19 H1          -3.2230    -1.1800     2.0000 ha         1 RV1       0.116500
     20 HN1          1.9850     1.0890     1.3680 hn         1 RV1       0.343500
     21 H2          -1.4170     0.5040     2.1920 ha         1 RV1       0.136000
     22 H4          -0.9970     0.4980    -2.1320 ha         1 RV1       0.136000
     23 H5          -2.8070    -1.1830    -2.2870 ha         1 RV1       0.116500
     24 H7           4.3090    -0.0680     0.1580 hc         1 RV1       0.090700
     25 H8           3.9920    -1.5000     2.2080 hc         1 RV1       0.083450
     26 H8A          2.2010    -1.6390     1.8550 hc         1 RV1       0.083450
     27 H9           2.7160    -2.7020    -0.3680 hc         1 RV1       0.083450
     28 H9A          4.5080    -2.5680    -0.0190 hc         1 RV1       0.083450
@<TRIPOS>BOND
     1     1     2 1   
     2     1     5 ar  
     3     1    12 ar  
     4     2    17 1   
     5     2    18 1   
     6     3     4 2   
     7     4     6 1   
     8     4     7 2   
     9     4    10 1   
    10     5     8 ar  
    11     5    19 1   
    12     6    13 1   
    13     6    20 1   
    14     8    10 ar  
    15     8    21 1   
    16     9    13 2   
    17    10    11 ar  
    18    11    12 ar  
    19    11    22 1   
    20    12    23 1   
    21    13    14 1   
    22    14    15 1   
    23    14    16 1   
    24    14    24 1   
    25    15    16 1   
    26    15    25 1   
    27    15    26 1   
    28    16    27 1   
    29    16    28 1   
@<TRIPOS>SUBSTRUCTURE
     1 RV1         1 TEMP              0 ****  ****    0 ROOT
