@<TRIPOS>MOLECULE
RV1
   28    29     1     0     0
SMALL
bcc


@<TRIPOS>ATOM
      1 C           -3.2920    -1.1640     0.0390 ca         1 RV1       0.252600
      2 N           -4.3590    -1.9900     0.0900 nv         1 RV1      -0.856200
      3 O            0.5210     2.0260    -1.5300 o          1 RV1      -0.606300
      4 S            0.2020     1.7240    -0.1490 sy         1 RV1       1.336900
      5 C1          -2.9010    -0.4200     1.1700 ca         1 RV1      -0.245000
      6 N1           1.5050     0.9030     0.5340 ns         1 RV1      -0.646300
      7 O1          -0.0270     2.8100     0.7900 o          1 RV1      -0.606300
      8 C2          -1.8400     0.4530     1.1050 ca         1 RV1       0.036000
      9 O2           1.6300    -0.7180    -1.0330 o          1 RV1      -0.569100
     10 C3          -1.1350     0.6080    -0.0890 ca         1 RV1      -0.377500
     11 C4          -1.5010    -0.1230    -1.2160 ca         1 RV1       0.036000
     12 C5          -2.5650    -0.9950    -1.1540 ca         1 RV1      -0.245000
     13 C6           2.0550    -0.2320    -0.0050 c          1 RV1       0.734100
     14 C7           3.1830    -0.7900     0.7710 cx         1 RV1      -0.252700
     15 C8           3.3560    -2.2880     0.7760 cx         1 RV1      -0.094400
     16 C9           4.3000    -1.4510     0.0010 cx         1 RV1      -0.094400
     17 HN          -4.7640    -2.2300     0.9790 hn         1 RV1       0.426300
     18 HNA         -4.5160    -2.6500    -0.6520 hn         1 RV1       0.426300
     19 H1          -3.4450    -0.5310     2.0990 ha         1 RV1       0.134500
     20 HN1          1.8260     1.2610     1.4260 hn         1 RV1       0.343500
     21 H2          -1.5670     1.0150     1.9890 ha         1 RV1       0.154000
     22 H4          -0.9620    -0.0130    -2.1460 ha         1 RV1       0.154000
     23 H5          -2.8460    -1.5580    -2.0350 ha         1 RV1       0.134500
     24 H7           3.4590    -0.2620     1.6760 hc         1 RV1       0.090700
     25 H8           3.6920    -2.7280     1.7060 hc         1 RV1       0.083450
     26 H8A          2.6230    -2.8720     0.2340 hc         1 RV1       0.083450
     27 H9           4.2190    -1.4540    -1.0780 hc         1 RV1       0.083450
     28 H9A          5.3010    -1.3020     0.3830 hc         1 RV1       0.083450
@<TRIPOS>BOND
     1     1     2 1   
     2     1     5 ar  
     3     1    12 ar  
     4     2    17 1   
     5     2    18 1   
     6     3     4 2   
     7     4     6 1   
     8     4     7 2   
     9     4    10 1   
    10     5     8 ar  
    11     5    19 1   
    12     6    13 1   
    13     6    20 1   
    14     8    10 ar  
    15     8    21 1   
    16     9    13 2   
    17    10    11 ar  
    18    11    12 ar  
    19    11    22 1   
    20    12    23 1   
    21    13    14 1   
    22    14    15 1   
    23    14    16 1   
    24    14    24 1   
    25    15    16 1   
    26    15    25 1   
    27    15    26 1   
    28    16    27 1   
    29    16    28 1   
@<TRIPOS>SUBSTRUCTURE
     1 RV1         1 TEMP              0 ****  ****    0 ROOT
