@<TRIPOS>MOLECULE
RV2
   39    41     1     0     0
SMALL
No Charge or Current Charge


@<TRIPOS>ATOM
      1 C10         32.6070    -4.3230     1.1090 ca         1 RV2      -0.011000
      2 C14         35.4550    -2.5990    -0.9190 c          1 RV2       0.516100
      3 C02         33.4950    -6.7380     0.8930 c          1 RV2       0.722600
      4 C04         32.4890    -5.7150     1.3900 ca         1 RV2      -0.180600
      5 C05         31.4010    -6.1680     2.1740 ca         1 RV2      -0.058000
      6 C06         30.4400    -5.2700     2.6600 ca         1 RV2       0.077000
      7 C08         30.5470    -3.9050     2.3710 ca         1 RV2      -0.103000
      8 C09         31.6210    -3.4350     1.6000 ca         1 RV2      -0.163000
      9 C12         34.2310    -2.5890     0.1020 c          1 RV2       0.522100
     10 C17         37.0600    -0.8690    -1.9530 ca         1 RV2      -0.002000
     11 C18         37.3330     0.5100    -1.9390 ca         1 RV2      -0.168000
     12 C19         38.3750     1.0380    -2.7140 ca         1 RV2      -0.088000
     13 C20         39.1560     0.1910    -3.5140 ca         1 RV2      -0.145000
     14 C21         38.9050    -1.1980    -3.5480 ca         1 RV2       0.020000
     15 C22         39.7090    -2.1070    -4.3790 cc         1 RV2      -0.105000
     16 C23         39.6290    -3.5050    -4.5570 cc         1 RV2      -0.162000
     17 C24         40.6160    -3.8430    -5.4390 cd         1 RV2       0.106900
     18 C26         40.7490    -1.6860    -5.1710 cd         1 RV2       0.123900
     19 C27         37.8520    -1.7150    -2.7620 ca         1 RV2      -0.124000
     20 N11         33.7050    -3.8580     0.3280 ns         1 RV2      -0.121000
     21 N16         35.9870    -1.3320    -1.1410 ns         1 RV2      -0.141000
     22 O01         33.6780    -7.7400     1.5690 o          1 RV2      -0.687500
     23 O03         34.0650    -6.5330    -0.1690 o          1 RV2      -0.687500
     24 O13         33.8190    -1.5550     0.6360 o          1 RV2      -0.654100
     25 O15         35.8670    -3.6330    -1.4430 o          1 RV2      -0.540100
     26 O25         41.3320    -2.7390    -5.8420 os         1 RV2      -0.245000
     27 Cl1         29.0940    -5.8600     3.6270 cl         1 RV2      -0.255000
     28 H051        31.2930    -7.2250     2.4040 ha         1 RV2       0.148000
     29 H081        29.7970    -3.2110     2.7420 ha         1 RV2       0.106000
     30 H091        31.6640    -2.3720     1.3840 ha         1 RV2       0.134000
     31 H181        36.7350     1.1790    -1.3230 ha         1 RV2       0.114000
     32 H191        38.5780     2.1060    -2.6960 ha         1 RV2       0.104000
     33 H201        39.9560     0.6300    -4.1030 ha         1 RV2       0.104000
     34 H231        38.9220    -4.1800    -4.0860 ha         1 RV2       0.154000
     35 H241        40.9020    -4.8040    -5.8470 h4         1 RV2       0.049100
     36 H261        41.1670    -0.7040    -5.3470 h4         1 RV2       0.048100
     37 H271        37.6610    -2.7800    -2.7900 ha         1 RV2       0.153000
     38 H111        34.1900    -4.6000    -0.1690 hn         1 RV2       0.258000
     39 H161        35.5200    -0.5970    -0.6230 hn         1 RV2       0.180000
@<TRIPOS>BOND
     1     1     4 ar  
     2     1     8 ar  
     3     1    20 1   
     4     2     9 1   
     5     2    21 1   
     6     2    25 2   
     7     3     4 1   
     8     3    22 1   
     9     3    23 1   
    10     4     5 ar  
    11     5     6 ar  
    12     5    28 1   
    13     6     7 ar  
    14     6    27 1   
    15     7     8 ar  
    16     7    29 1   
    17     8    30 1   
    18     9    20 1   
    19     9    24 2   
    20    10    11 ar  
    21    10    19 ar  
    22    10    21 1   
    23    11    12 ar  
    24    11    31 1   
    25    12    13 ar  
    26    12    32 1   
    27    13    14 ar  
    28    13    33 1   
    29    14    15 1   
    30    14    19 ar  
    31    15    16 1   
    32    15    18 2   
    33    16    17 2   
    34    16    34 1   
    35    17    26 1   
    36    17    35 1   
    37    18    26 1   
    38    18    36 1   
    39    19    37 1   
    40    20    38 1   
    41    21    39 1   
@<TRIPOS>SUBSTRUCTURE
     1 RV2         1 TEMP              0 ****  ****    0 ROOT
