@<TRIPOS>MOLECULE
RV2
   39    41     1     0     0
SMALL
abcg2


@<TRIPOS>ATOM
      1 C10         32.7590    -4.2720     1.0940 ca         1 RV2      -0.011000
      2 C14         35.4590    -2.6480    -0.9620 c          1 RV2       0.516100
      3 C02         32.8790    -6.6250     0.0090 c          1 RV2       0.722600
      4 C04         32.3140    -5.6070     1.0030 ca         1 RV2      -0.180600
      5 C05         31.3060    -6.0370     1.8580 ca         1 RV2      -0.058000
      6 C06         30.7420    -5.1770     2.7800 ca         1 RV2       0.077000
      7 C08         31.1760    -3.8660     2.8760 ca         1 RV2      -0.103000
      8 C09         32.1800    -3.4170     2.0360 ca         1 RV2      -0.163000
      9 C12         34.3470    -2.6760     0.1070 c          1 RV2       0.522100
     10 C17         36.9180    -0.9320    -2.0020 ca         1 RV2      -0.002000
     11 C18         36.9970     0.4510    -2.1700 ca         1 RV2      -0.168000
     12 C19         37.9590     0.9900    -3.0050 ca         1 RV2      -0.088000
     13 C20         38.8550     0.1700    -3.6730 ca         1 RV2      -0.145000
     14 C21         38.7850    -1.2140    -3.5130 ca         1 RV2       0.020000
     15 C22         39.7310    -2.0950    -4.2000 cc         1 RV2      -0.105000
     16 C23         40.1220    -3.4230    -3.8230 cc         1 RV2      -0.162000
     17 C24         41.0260    -3.8280    -4.7410 cd         1 RV2       0.106900
     18 C26         40.4380    -1.8210    -5.3290 cd         1 RV2       0.123900
     19 C27         37.8100    -1.7610    -2.6770 ca         1 RV2      -0.124000
     20 N11         33.7780    -3.8760     0.2270 ns         1 RV2      -0.121000
     21 N16         35.9340    -1.4030    -1.1270 ns         1 RV2      -0.141000
     22 O01         32.4170    -7.7690     0.0510 o          1 RV2      -0.687500
     23 O03         33.7710    -6.2150    -0.7790 o          1 RV2      -0.687500
     24 O13         34.0840    -1.6590     0.7310 o          1 RV2      -0.654100
     25 O15         35.8200    -3.6510    -1.5460 o          1 RV2      -0.540100
     26 O25         41.2220    -2.8610    -5.6620 os         1 RV2      -0.245000
     27 CL1         29.4800    -5.7440     3.8290 cl         1 RV2      -0.255000
     28 H051        30.9680    -7.0610     1.7870 ha         1 RV2       0.148000
     29 H081        30.7390    -3.1890     3.5980 ha         1 RV2       0.106000
     30 H091        32.5050    -2.3940     2.1250 ha         1 RV2       0.134000
     31 H181        36.3060     1.1000    -1.6450 ha         1 RV2       0.114000
     32 H191        38.0180     2.0630    -3.1270 ha         1 RV2       0.104000
     33 H201        39.6190     0.6100    -4.3000 ha         1 RV2       0.104000
     34 H231        39.7870    -3.9890    -2.9680 ha         1 RV2       0.154000
     35 H241        41.5940    -4.7360    -4.8610 h4         1 RV2       0.049100
     36 H261        40.4660    -0.9630    -5.9810 h4         1 RV2       0.048100
     37 H271        37.7550    -2.8320    -2.5580 ha         1 RV2       0.153000
     38 H111        34.0620    -4.6760    -0.3860 hn         1 RV2       0.258000
     39 H161        35.4740    -0.7020    -0.5590 hn         1 RV2       0.180000
@<TRIPOS>BOND
     1     1     4 ar  
     2     1     8 ar  
     3     1    20 1   
     4     2     9 1   
     5     2    21 1   
     6     2    25 2   
     7     3     4 1   
     8     3    22 1   
     9     3    23 1   
    10     4     5 ar  
    11     5     6 ar  
    12     5    28 1   
    13     6     7 ar  
    14     6    27 1   
    15     7     8 ar  
    16     7    29 1   
    17     8    30 1   
    18     9    20 1   
    19     9    24 2   
    20    10    11 ar  
    21    10    19 ar  
    22    10    21 1   
    23    11    12 ar  
    24    11    31 1   
    25    12    13 ar  
    26    12    32 1   
    27    13    14 ar  
    28    13    33 1   
    29    14    15 1   
    30    14    19 ar  
    31    15    16 1   
    32    15    18 2   
    33    16    17 2   
    34    16    34 1   
    35    17    26 1   
    36    17    35 1   
    37    18    26 1   
    38    18    36 1   
    39    19    37 1   
    40    20    38 1   
    41    21    39 1   
@<TRIPOS>SUBSTRUCTURE
     1 RV2         1 TEMP              0 ****  ****    0 ROOT
