@<TRIPOS>MOLECULE
RV3
   38    41     1     0     0
SMALL
No Charge or Current Charge


@<TRIPOS>ATOM
      1 C18        -47.6600   -29.8900     4.9510 ca         1 RV3      -0.050000
      2 C17        -48.4840   -29.5250     3.8440 ca         1 RV3      -0.157600
      3 C15        -47.9460   -29.4200     2.4330 c          1 RV3       0.606700
      4 C13        -45.8800   -29.6360     1.0010 c3         1 RV3       0.186200
      5 C12        -44.7460   -28.6390     1.0570 cc         1 RV3      -0.188400
      6 C11        -44.5460   -27.5680     0.1150 ca         1 RV3      -0.084800
      7 C10        -45.3060   -27.1830    -1.0030 ca         1 RV3      -0.064000
      8 C20        -49.5580   -29.6930     6.4120 ca         1 RV3      -0.067200
      9 C19        -48.2000   -29.9760     6.2520 ca         1 RV3      -0.138000
     10 C04        -43.6770   -28.5470     1.9720 cd         1 RV3      -0.083300
     11 C06        -43.4110   -26.8980     0.4710 ca         1 RV3      -0.061200
     12 C07        -42.9470   -25.7940    -0.2590 ca         1 RV3      -0.131000
     13 C08        -43.6870   -25.3830    -1.3870 ca         1 RV3      -0.120000
     14 C09        -44.8630   -26.0760    -1.7570 ca         1 RV3      -0.162000
     15 C22        -51.6190   -29.3400     7.1400 cc         1 RV3       0.394700
     16 C24        -50.3680   -29.3420     5.3760 ca         1 RV3       0.041400
     17 C25        -49.8590   -29.2480     4.0720 ca         1 RV3      -0.004000
     18 N05        -42.8450   -27.4600     1.5960 na         1 RV3      -0.203700
     19 N14        -46.6120   -29.6960     2.2580 ns         1 RV3      -0.486900
     20 N21        -50.3300   -29.6970     7.5310 na         1 RV3      -0.331600
     21 N23        -51.6720   -29.1150     5.8100 nd         1 RV3      -0.572100
     22 O01        -44.2010   -30.3310     3.4470 o          1 RV3      -0.717000
     23 O03        -42.4220   -29.2010     3.8330 o          1 RV3      -0.717000
     24 O16        -48.6610   -29.1070     1.4890 o          1 RV3      -0.656100
     25 H181       -46.6030   -30.1100     4.8250 ha         1 RV3       0.158000
     26 H131       -46.5620   -29.3880     0.1800 h1         1 RV3       0.049700
     27 H132       -45.4670   -30.6330     0.7950 h1         1 RV3       0.049700
     28 H101       -46.2100   -27.7170    -1.2840 ha         1 RV3       0.110000
     29 H191       -47.5780   -30.2540     7.1000 ha         1 RV3       0.119000
     30 H071       -42.0410   -25.2680     0.0340 ha         1 RV3       0.099000
     31 H081       -43.3520   -24.5300    -1.9730 ha         1 RV3       0.089000
     32 H091       -45.4300   -25.7540    -2.6270 ha         1 RV3       0.091000
     33 H221       -52.4420   -29.2660     7.8420 h5         1 RV3       0.049800
     34 H251       -50.5210   -28.9670     3.2560 ha         1 RV3       0.145000
     35 H051       -42.0010   -27.1610     2.0740 hn         1 RV3       0.364000
     36 H141       -46.0660   -29.9540     3.0730 hn         1 RV3       0.369500
     37 H211       -50.0380   -29.9140     8.4760 hn         1 RV3       0.349000
     38 C02        -43.4200   -29.4330     3.1640 c          1 RV3       0.724200
@<TRIPOS>BOND
     1     1     2 ar  
     2     1     9 ar  
     3     1    25 1   
     4     2     3 1   
     5     2    17 ar  
     6     3    19 1   
     7     3    24 2   
     8     4     5 1   
     9     4    19 1   
    10     4    26 1   
    11     4    27 1   
    12     5     6 1   
    13     5    10 2   
    14     6     7 ar  
    15     6    11 ar  
    16     7    14 ar  
    17     7    28 1   
    18     8     9 ar  
    19     8    16 ar  
    20     8    20 1   
    21     9    29 1   
    22    10    18 1   
    23    10    38 1   
    24    11    12 ar  
    25    11    18 1   
    26    12    13 ar  
    27    12    30 1   
    28    13    14 ar  
    29    13    31 1   
    30    14    32 1   
    31    15    20 1   
    32    15    21 2   
    33    15    33 1   
    34    16    17 ar  
    35    16    21 1   
    36    17    34 1   
    37    18    35 1   
    38    19    36 1   
    39    20    37 1   
    40    22    38 1   
    41    23    38 1   
@<TRIPOS>SUBSTRUCTURE
     1 RV3         1 TEMP              0 ****  ****    0 ROOT
