@<TRIPOS>MOLECULE
RV3
   38    41     1     0     0
SMALL
abcg2


@<TRIPOS>ATOM
      1 C18        -47.5500   -29.6340     4.9010 ca         1 RV3      -0.050000
      2 C17        -48.4110   -29.4720     3.7930 ca         1 RV3      -0.157600
      3 C15        -47.8960   -29.4060     2.3840 c          1 RV3       0.606700
      4 C13        -45.9410   -29.7750     0.9280 c3         1 RV3       0.186200
      5 C12        -44.8490   -28.7490     1.0340 cc         1 RV3      -0.188400
      6 C11        -44.6580   -27.6460     0.1390 ca         1 RV3      -0.084800
      7 C10        -45.3420   -27.1840    -0.9970 ca         1 RV3      -0.064000
      8 C20        -49.4040   -29.5520     6.3720 ca         1 RV3      -0.067200
      9 C19        -48.0280   -29.6730     6.2010 ca         1 RV3      -0.138000
     10 C04        -43.8430   -28.6750     1.9810 cd         1 RV3      -0.083300
     11 C06        -43.5110   -26.9330     0.5910 ca         1 RV3      -0.061200
     12 C07        -43.0450   -25.7880    -0.0600 ca         1 RV3      -0.131000
     13 C08        -43.7420   -25.3590    -1.1780 ca         1 RV3      -0.120000
     14 C09        -44.8800   -26.0490    -1.6420 ca         1 RV3      -0.162000
     15 C22        -51.4980   -29.3900     7.0480 cc         1 RV3       0.394700
     16 C24        -50.2850   -29.3880     5.2800 ca         1 RV3       0.041400
     17 C25        -49.7840   -29.3410     3.9830 ca         1 RV3      -0.004000
     18 N05        -43.0480   -27.5810     1.7000 na         1 RV3      -0.203700
     19 N14        -46.6790   -29.9320     2.1710 ns         1 RV3      -0.486900
     20 N21        -50.2140   -29.5480     7.4840 na         1 RV3      -0.331600
     21 N23        -51.5930   -29.2900     5.7440 nd         1 RV3      -0.572100
     22 O01        -44.2920   -30.4540     3.4830 o          1 RV3      -0.717000
     23 O03        -42.4360   -29.2240     3.7690 o          1 RV3      -0.717000
     24 O16        -48.5820   -28.9100     1.4800 o          1 RV3      -0.656100
     25 H181       -46.4810   -29.7100     4.7500 ha         1 RV3       0.158000
     26 H131       -46.6450   -29.4910     0.1500 h1         1 RV3       0.049700
     27 H132       -45.5250   -30.7490     0.6580 h1         1 RV3       0.049700
     28 H101       -46.2180   -27.7040    -1.3620 ha         1 RV3       0.110000
     29 H191       -47.3570   -29.7860     7.0420 ha         1 RV3       0.119000
     30 H071       -42.1720   -25.2580     0.2990 ha         1 RV3       0.099000
     31 H081       -43.4070   -24.4750    -1.7060 ha         1 RV3       0.089000
     32 H091       -45.3990   -25.6810    -2.5180 ha         1 RV3       0.091000
     33 H221       -52.3260   -29.3540     7.7400 h5         1 RV3       0.049800
     34 H251       -50.4390   -29.2090     3.1330 ha         1 RV3       0.145000
     35 H051       -42.2480   -27.3370     2.2610 hn         1 RV3       0.364000
     36 H141       -46.0810   -30.2370     2.9360 hn         1 RV3       0.369500
     37 H211       -49.9220   -29.6470     8.4440 hn         1 RV3       0.349000
     38 C02        -43.4990   -29.5220     3.1720 c          1 RV3       0.724200
@<TRIPOS>BOND
     1     1     2 ar  
     2     1     9 ar  
     3     1    25 1   
     4     2     3 1   
     5     2    17 ar  
     6     3    19 1   
     7     3    24 2   
     8     4     5 1   
     9     4    19 1   
    10     4    26 1   
    11     4    27 1   
    12     5     6 1   
    13     5    10 2   
    14     6     7 ar  
    15     6    11 ar  
    16     7    14 ar  
    17     7    28 1   
    18     8     9 ar  
    19     8    16 ar  
    20     8    20 1   
    21     9    29 1   
    22    10    18 1   
    23    10    38 1   
    24    11    12 ar  
    25    11    18 1   
    26    12    13 ar  
    27    12    30 1   
    28    13    14 ar  
    29    13    31 1   
    30    14    32 1   
    31    15    20 1   
    32    15    21 2   
    33    15    33 1   
    34    16    17 ar  
    35    16    21 1   
    36    17    34 1   
    37    18    35 1   
    38    19    36 1   
    39    20    37 1   
    40    22    38 1   
    41    23    38 1   
@<TRIPOS>SUBSTRUCTURE
     1 RV3         1 TEMP              0 ****  ****    0 ROOT
