@<TRIPOS>MOLECULE
RV4
   35    36     1     0     0
SMALL
bcc


@<TRIPOS>ATOM
      1 N1           3.7440    -0.4800    -0.1740 ns         1 RV4      -0.474100
      2 C4           1.8220    -0.5160    -1.5750 ca         1 RV4      -0.172500
      3 C5           0.4940    -0.2290    -1.8470 ca         1 RV4      -0.089500
      4 C6          -0.2990     0.4450    -0.9270 ca         1 RV4      -0.115300
      5 C7           0.2840     0.8150     0.2800 ca         1 RV4      -0.089500
      6 C8           1.6110     0.5350     0.5720 ca         1 RV4      -0.172500
      7 C10         -2.7160    -0.9510     0.1260 c6         1 RV4       0.126300
      8 C13         -3.9440     1.0330    -0.3240 c6         1 RV4       0.126300
      9 C11         -3.6190    -1.2060     1.3160 c6         1 RV4       0.130400
     10 C12         -4.8180     0.7370     0.8800 c6         1 RV4       0.130400
     11 C2           4.5410    -0.2910     0.9090 c          1 RV4       0.675100
     12 C3           2.4000    -0.1410    -0.3620 ca         1 RV4       0.074600
     13 N2          -2.6200     0.4760    -0.1260 n3         1 RV4      -0.717600
     14 O1           4.1710     0.2410     1.9410 o          1 RV4      -0.581100
     15 O2          -4.9020    -0.6490     1.1290 os         1 RV4      -0.404600
     16 H1           4.1720    -0.9430    -0.9610 hn         1 RV4       0.314500
     17 H2           2.4130    -1.0480    -2.3120 ha         1 RV4       0.145500
     18 H3           0.0730    -0.5450    -2.7950 ha         1 RV4       0.137000
     19 H4          -0.3150     1.3280     1.0220 ha         1 RV4       0.137000
     20 H5           2.0170     0.8450     1.5210 ha         1 RV4       0.145500
     21 H7          -3.0970    -1.4930    -0.7580 h1         1 RV4       0.041950
     22 H8          -4.4260     0.6350    -1.2340 h1         1 RV4       0.041950
     23 H9          -3.8670     2.1160    -0.4500 h1         1 RV4       0.041950
     24 H13         -3.7480    -2.2790     1.4660 h1         1 RV4       0.050700
     25 H14         -3.1490    -0.7930     2.2200 h1         1 RV4       0.050700
     26 H15         -4.4170     1.2630     1.7580 h1         1 RV4       0.050700
     27 H16         -5.8320     1.1000     0.7060 h1         1 RV4       0.050700
     28 C9          -1.7350     0.7820    -1.2300 c3         1 RV4       0.220100
     29 C1           5.9570    -0.7750     0.7250 c3         1 RV4      -0.183100
     30 H6          -1.7250    -1.3540     0.3480 h1         1 RV4       0.041950
     31 H10          6.0790    -1.4720    -0.1020 hc         1 RV4       0.063033
     32 H11          6.6060     0.0830     0.5430 hc         1 RV4       0.063033
     33 H12          6.2990    -1.2560     1.6400 hc         1 RV4       0.063033
     34 H17         -1.8170     1.8550    -1.4330 h1         1 RV4       0.037700
     35 H18         -2.0410     0.2730    -2.1600 h1         1 RV4       0.037700
@<TRIPOS>BOND
     1     1    11 1   
     2     1    12 1   
     3     1    16 1   
     4     2     3 ar  
     5     2    12 ar  
     6     2    17 1   
     7     3     4 ar  
     8     3    18 1   
     9     4     5 ar  
    10     4    28 1   
    11     5     6 ar  
    12     5    19 1   
    13     6    12 ar  
    14     6    20 1   
    15     7     9 1   
    16     7    13 1   
    17     7    21 1   
    18     7    30 1   
    19     8    10 1   
    20     8    13 1   
    21     8    22 1   
    22     8    23 1   
    23     9    15 1   
    24     9    24 1   
    25     9    25 1   
    26    10    15 1   
    27    10    26 1   
    28    10    27 1   
    29    11    14 2   
    30    11    29 1   
    31    13    28 1   
    32    28    34 1   
    33    28    35 1   
    34    29    31 1   
    35    29    32 1   
    36    29    33 1   
@<TRIPOS>SUBSTRUCTURE
     1 RV4         1 TEMP              0 ****  ****    0 ROOT
