@<TRIPOS>MOLECULE
RV4
   35    36     1     0     0
SMALL
No Charge or Current Charge


@<TRIPOS>ATOM
      1 N1           3.7740    -0.5300    -0.0860 ns         1 RV4      -0.148000
      2 C4           1.7380    -0.6480    -1.3890 ca         1 RV4      -0.154500
      3 C5           0.4070    -0.2810    -1.6530 ca         1 RV4      -0.071500
      4 C6          -0.2550     0.6350    -0.8150 ca         1 RV4      -0.115300
      5 C7           0.4300     1.1760     0.2880 ca         1 RV4      -0.071500
      6 C8           1.7620     0.8090     0.5520 ca         1 RV4      -0.154500
      7 C10         -2.6870    -0.9600     0.0200 c6         1 RV4       0.126300
      8 C13         -4.0360     1.0810    -0.2680 c6         1 RV4       0.126300
      9 C11         -3.7010    -1.4460     1.0990 c6         1 RV4       0.153600
     10 C12         -5.0200     0.5520     0.8190 c6         1 RV4       0.153600
     11 C2           4.7280    -0.1980     0.8680 c          1 RV4       0.608100
     12 C3           2.4300    -0.1090    -0.2880 ca         1 RV4      -0.018000
     13 N2          -2.6560     0.5350    -0.0790 n3         1 RV4      -0.717600
     14 O1           4.5540     0.5960     1.7850 o          1 RV4      -0.581100
     15 O2          -5.0160    -0.8960     0.8400 os         1 RV4      -0.451000
     16 H1           4.0960    -1.2020    -0.7700 hn         1 RV4       0.148000
     17 H2           2.2330    -1.3580    -2.0480 ha         1 RV4       0.127500
     18 H3          -0.1090    -0.7110    -2.5090 ha         1 RV4       0.119000
     19 H4          -0.0750     1.8810     0.9450 ha         1 RV4       0.119000
     20 H5           2.2510     1.2490     1.4150 ha         1 RV4       0.127500
     21 H7          -2.9660    -1.4000    -0.9490 h1         1 RV4       0.041950
     22 H8          -4.4250     0.8010    -1.2590 h1         1 RV4       0.041950
     23 H9          -4.0210     2.1790    -0.2250 h1         1 RV4       0.041950
     24 H13         -3.7610    -2.5430     1.0890 h1         1 RV4       0.050700
     25 H14         -3.3660    -1.1300     2.0970 h1         1 RV4       0.050700
     26 H15         -4.7250     0.9300     1.8080 h1         1 RV4       0.050700
     27 H16         -6.0380     0.9060     0.6060 h1         1 RV4       0.050700
     28 C9          -1.7000     1.0380    -1.0940 c3         1 RV4       0.220100
     29 C1           6.0620    -0.9170     0.6860 c3         1 RV4      -0.183100
     30 H6          -1.6930    -1.3520     0.2770 h1         1 RV4       0.041950
     31 H10          5.8840    -1.9990     0.6680 hc         1 RV4       0.063033
     32 H11          6.4350    -0.7270    -0.3270 hc         1 RV4       0.063033
     33 H12          6.7990    -0.6400     1.4470 hc         1 RV4       0.063033
     34 H17         -1.7420     2.1360    -1.1280 h1         1 RV4       0.037700
     35 H18         -1.9900     0.6800    -2.0920 h1         1 RV4       0.037700
@<TRIPOS>BOND
     1     1    11 1   
     2     1    12 1   
     3     1    16 1   
     4     2     3 ar  
     5     2    12 ar  
     6     2    17 1   
     7     3     4 ar  
     8     3    18 1   
     9     4     5 ar  
    10     4    28 1   
    11     5     6 ar  
    12     5    19 1   
    13     6    12 ar  
    14     6    20 1   
    15     7     9 1   
    16     7    13 1   
    17     7    21 1   
    18     7    30 1   
    19     8    10 1   
    20     8    13 1   
    21     8    22 1   
    22     8    23 1   
    23     9    15 1   
    24     9    24 1   
    25     9    25 1   
    26    10    15 1   
    27    10    26 1   
    28    10    27 1   
    29    11    14 2   
    30    11    29 1   
    31    13    28 1   
    32    28    34 1   
    33    28    35 1   
    34    29    31 1   
    35    29    32 1   
    36    29    33 1   
@<TRIPOS>SUBSTRUCTURE
     1 RV4         1 TEMP              0 ****  ****    0 ROOT
