@<TRIPOS>MOLECULE
RV5
   39    41     1     0     0
SMALL
bcc


@<TRIPOS>ATOM
      1 C10          8.5180    -4.5070    26.3370 c6         1 RV5      -0.100400
      2 C13          7.2560    -4.3950    25.4900 c6         1 RV5       0.096500
      3 C15          6.3310    -1.8260    24.5660 c3         1 RV5       0.027000
      4 C17          7.3540     2.6320    22.8700 ca         1 RV5       0.125600
      5 C20          6.7660     3.5250    21.9350 ca         1 RV5      -0.197000
      6 C21          8.5370     5.0790    22.2520 ca         1 RV5      -0.020600
      7 C22          7.3370     4.7290    21.6230 ca         1 RV5      -0.018000
      8 C09          9.5590    -5.3760    25.6380 c6         1 RV5      -0.073400
      9 C11          9.8160    -4.8860    24.2160 c6         1 RV5      -0.100400
     10 C12          8.5100    -4.7570    23.4420 c6         1 RV5       0.096500
     11 C16          6.9960     0.3990    23.9010 c          1 RV5       0.801100
     12 C18          8.5490     2.9700    23.4970 ca         1 RV5      -0.134000
     13 C19          9.1170     4.1990    23.1730 ca         1 RV5      -0.031100
     14 N04          7.5770    -3.9040    24.1600 n          1 RV5      -0.472800
     15 N05          6.0400    -0.5610    23.9620 ns         1 RV5      -0.556900
     16 N06          6.6550     1.4610    23.0920 ns         1 RV5      -0.481100
     17 N07          9.2410     6.2360    22.0700 nc         1 RV5      -0.150400
     18 N08         10.2870     6.3240    22.7540 nd         1 RV5      -0.112500
     19 O02          7.5900    -2.2810    22.5860 o          1 RV5      -0.601100
     20 O03          8.0360     0.3400    24.5350 o          1 RV5      -0.609100
     21 S01         10.5490     4.9460    23.7380 ss         1 RV5       0.099600
     22 H102         8.9210    -3.5050    26.5130 hc         1 RV5       0.052950
     23 H101         8.2600    -4.9250    27.3120 hc         1 RV5       0.052950
     24 H132         6.5200    -3.7590    25.9740 h1         1 RV5       0.053450
     25 H131         6.7950    -5.3830    25.3850 h1         1 RV5       0.053450
     26 H151         6.7910    -1.6710    25.5430 h1         1 RV5       0.077200
     27 H152         5.3830    -2.3360    24.7470 h1         1 RV5       0.077200
     28 H201         5.8360     3.2420    21.4580 ha         1 RV5       0.133000
     29 H221         6.8740     5.3960    20.9090 ha         1 RV5       0.154000
     30 H092         9.1970    -6.4090    25.6010 hc         1 RV5       0.042700
     31 H091        10.4890    -5.3910    26.2100 hc         1 RV5       0.042700
     32 H111        10.4800    -5.5740    23.6880 hc         1 RV5       0.052950
     33 H112        10.3170    -3.9140    24.2390 hc         1 RV5       0.052950
     34 H122         8.6770    -4.3550    22.4460 h1         1 RV5       0.053450
     35 H121         8.0500    -5.7440    23.3240 h1         1 RV5       0.053450
     36 H181         9.0180     2.3150    24.2110 ha         1 RV5       0.185000
     37 H051         5.2740    -0.5440    23.3070 hn         1 RV5       0.312500
     38 H061         5.7860     1.3890    22.5840 hn         1 RV5       0.315500
     39 C14          7.2330    -2.6930    23.6800 c          1 RV5       0.647100
@<TRIPOS>BOND
     1     1     2 1   
     2     1     8 1   
     3     1    22 1   
     4     1    23 1   
     5     2    14 1   
     6     2    24 1   
     7     2    25 1   
     8     3    15 1   
     9     3    26 1   
    10     3    27 1   
    11     3    39 1   
    12     4     5 ar  
    13     4    12 ar  
    14     4    16 1   
    15     5     7 ar  
    16     5    28 1   
    17     6     7 ar  
    18     6    13 ar  
    19     6    17 1   
    20     7    29 1   
    21     8     9 1   
    22     8    30 1   
    23     8    31 1   
    24     9    10 1   
    25     9    32 1   
    26     9    33 1   
    27    10    14 1   
    28    10    34 1   
    29    10    35 1   
    30    11    15 1   
    31    11    16 1   
    32    11    20 2   
    33    12    13 ar  
    34    12    36 1   
    35    13    21 1   
    36    14    39 1   
    37    15    37 1   
    38    16    38 1   
    39    17    18 2   
    40    18    21 1   
    41    19    39 2   
@<TRIPOS>SUBSTRUCTURE
     1 RV5         1 TEMP              0 ****  ****    0 ROOT
