@<TRIPOS>MOLECULE
RV5
   39    41     1     0     0
SMALL
No Charge or Current Charge


@<TRIPOS>ATOM
      1 C10          8.6080    -4.6820    26.4160 c6         1 RV5      -0.100400
      2 C13          7.2890    -4.4540    25.6410 c6         1 RV5       0.096500
      3 C15          6.5690    -1.7950    24.4450 c3         1 RV5       0.027000
      4 C17          7.3690     2.9110    22.7820 ca         1 RV5       0.033000
      5 C20          6.7230     3.7450    21.8400 ca         1 RV5      -0.179000
      6 C21          8.3300     5.5140    22.2600 ca         1 RV5      -0.020600
      7 C22          7.1990     5.0470    21.5740 ca         1 RV5       0.000000
      8 C09          9.4660    -5.7790    25.7380 c6         1 RV5      -0.073400
      9 C11          9.6850    -5.4600    24.2380 c6         1 RV5      -0.100400
     10 C12          8.3360    -5.2050    23.5220 c6         1 RV5       0.096500
     11 C16          7.2040     0.5750    23.8250 c          1 RV5       0.667100
     12 C18          8.5080     3.4030    23.4630 ca         1 RV5      -0.116000
     13 C19          8.9520     4.7020    23.1730 ca         1 RV5      -0.158000
     14 N04          7.5710    -4.1330    24.2140 n          1 RV5      -0.405800
     15 N05          6.3840    -0.5230    23.7030 ns         1 RV5      -0.489900
     16 N06          6.8270     1.6140    22.9910 ns         1 RV5      -0.155000
     17 N07          8.9080     6.7680    22.1030 nc         1 RV5      -0.150400
     18 N08          9.9630     6.8900    22.9000 nd         1 RV5      -0.112500
     19 O02          7.7240    -2.6340    22.4810 o          1 RV5      -0.601100
     20 O03          8.1530     0.5970    24.5950 o          1 RV5      -0.609100
     21 S01         10.3180     5.5470    23.8610 ss         1 RV5       0.226500
     22 H102         9.1750    -3.7410    26.4600 hc         1 RV5       0.052950
     23 H101         8.3880    -4.9650    27.4550 hc         1 RV5       0.052950
     24 H132         6.7040    -3.6680    26.1360 h1         1 RV5       0.053450
     25 H131         6.6830    -5.3710    25.6830 h1         1 RV5       0.053450
     26 H151         7.1210    -1.6100    25.3750 h1         1 RV5       0.077200
     27 H152         5.5870    -2.2090    24.7030 h1         1 RV5       0.077200
     28 H201         5.8470     3.3840    21.3070 ha         1 RV5       0.115000
     29 H221         6.6960     5.6800    20.8470 ha         1 RV5       0.136000
     30 H092         8.9650    -6.7530    25.8380 hc         1 RV5       0.042700
     31 H091        10.4340    -5.8710    26.2490 hc         1 RV5       0.042700
     32 H111        10.2160    -6.2880    23.7490 hc         1 RV5       0.052950
     33 H112        10.3240    -4.5730    24.1370 hc         1 RV5       0.052950
     34 H122         8.5210    -4.9470    22.4700 h1         1 RV5       0.053450
     35 H121         7.7390    -6.1290    23.5260 h1         1 RV5       0.053450
     36 H181         9.0450     2.8090    24.1970 ha         1 RV5       0.167000
     37 H051         5.6340    -0.4650    23.0240 hn         1 RV5       0.312500
     38 H061         6.0150     1.4190    22.4220 hn         1 RV5       0.149000
     39 C14          7.3410    -2.8650    23.6240 c          1 RV5       0.580100
@<TRIPOS>BOND
     1     1     2 1   
     2     1     8 1   
     3     1    22 1   
     4     1    23 1   
     5     2    14 1   
     6     2    24 1   
     7     2    25 1   
     8     3    15 1   
     9     3    26 1   
    10     3    27 1   
    11     3    39 1   
    12     4     5 ar  
    13     4    12 ar  
    14     4    16 1   
    15     5     7 ar  
    16     5    28 1   
    17     6     7 ar  
    18     6    13 ar  
    19     6    17 1   
    20     7    29 1   
    21     8     9 1   
    22     8    30 1   
    23     8    31 1   
    24     9    10 1   
    25     9    32 1   
    26     9    33 1   
    27    10    14 1   
    28    10    34 1   
    29    10    35 1   
    30    11    15 1   
    31    11    16 1   
    32    11    20 2   
    33    12    13 ar  
    34    12    36 1   
    35    13    21 1   
    36    14    39 1   
    37    15    37 1   
    38    16    38 1   
    39    17    18 2   
    40    18    21 1   
    41    19    39 2   
@<TRIPOS>SUBSTRUCTURE
     1 RV5         1 TEMP              0 ****  ****    0 ROOT
