@<TRIPOS>MOLECULE
RV6
   58    61     1     0     0
SMALL
No Charge or Current Charge


@<TRIPOS>ATOM
      1 C23        -65.0220    23.2160     2.5270 ca         1 RV6       0.342900
      2 C11        -58.7400    26.6850    -4.0470 c3         1 RV6       0.139600
      3 C16        -63.8860    24.3490    -0.7960 cp         1 RV6      -0.183500
      4 C4         -61.4400    24.5480    -8.1350 ca         1 RV6       0.180500
      5 C3         -60.0540    24.7890    -6.3420 ca         1 RV6       0.439900
      6 C2         -62.2810    24.5220    -5.9020 ca         1 RV6       0.476900
      7 C1         -63.4870    24.3770    -3.6280 ca         1 RV6       0.327000
      8 C6         -63.3520    24.2380    -9.2650 cc         1 RV6       0.397700
      9 C5         -62.5140    24.4370    -7.2880 ca         1 RV6      -0.146600
     10 C15        -64.7620    23.6580    -1.6760 ca         1 RV6      -0.053000
     11 C14        -64.5670    23.6800    -3.0670 ca         1 RV6      -0.166000
     12 C12        -58.5170    24.1540    -3.5200 c3         1 RV6      -0.091400
     13 C10        -58.2410    25.2880    -4.5470 c3         1 RV6       0.265500
     14 C17        -62.8060    25.0590    -1.3840 ca         1 RV6      -0.053000
     15 C18        -62.6150    25.0750    -2.7770 ca         1 RV6      -0.166000
     16 C19        -64.0940    24.3270     0.6960 cp         1 RV6       0.418500
     17 C20        -63.5900    25.3420     1.5520 ca         1 RV6      -0.158000
     18 C21        -63.8130    25.2700     2.9360 ca         1 RV6      -0.071000
     19 C22        -64.5430    24.1800     3.4290 ca         1 RV6      -0.170000
     20 C8         -60.1810    23.3170   -10.7580 c3         1 RV6      -0.107600
     21 C9         -60.5200    25.8590   -10.8540 c3         1 RV6      -0.107600
     22 N1         -63.3420    24.3700    -5.0170 nu         1 RV6      -0.926900
     23 N2         -61.0380    24.6920    -5.4260 nb         1 RV6      -0.330000
     24 N3         -60.1860    24.7250    -7.6800 nb         1 RV6      -0.294000
     25 N4         -63.7230    24.2390    -7.9710 nd         1 RV6      -0.551100
     26 N5         -61.9740    24.4250    -9.3900 na         1 RV6      -0.299300
     27 N6         -58.7490    24.9590    -5.9060 nu         1 RV6      -0.922100
     28 N7         -64.8070    23.2890     1.1940 nb         1 RV6      -0.677000
     29 H231       -65.5960    22.3610     2.8810 h4         1 RV6       0.018100
     30 H112       -59.8360    26.6810    -3.9920 h1         1 RV6       0.037700
     31 H111       -58.3660    26.8430    -3.0260 h1         1 RV6       0.037700
     32 H61        -64.0040    24.1130   -10.1220 h5         1 RV6       0.062800
     33 H151       -65.6110    23.1040    -1.2790 ha         1 RV6       0.121000
     34 H141       -65.2580    23.1410    -3.7100 ha         1 RV6       0.131500
     35 H132       -58.1230    22.0440    -3.1200 hc         1 RV6       0.035700
     36 H133       -58.4440    22.3960    -4.8290 hc         1 RV6       0.035700
     37 H131       -56.8750    22.8320    -4.1100 hc         1 RV6       0.035700
     38 H121       -59.5910    24.0630    -3.3260 hc         1 RV6       0.053200
     39 H122       -58.0630    24.4390    -2.5630 hc         1 RV6       0.053200
     40 H101       -57.1460    25.3670    -4.6150 h1         1 RV6       0.057700
     41 H171       -62.0950    25.5980    -0.7620 ha         1 RV6       0.121000
     42 H181       -61.7910    25.6490    -3.1830 ha         1 RV6       0.131500
     43 H201       -63.0420    26.1860     1.1460 ha         1 RV6       0.121000
     44 H211       -63.4340    26.0400     3.6050 ha         1 RV6       0.117000
     45 H221       -64.7440    24.0780     4.4920 ha         1 RV6       0.123000
     46 H71        -61.9050    24.3560   -11.4610 h1         1 RV6       0.050700
     47 H83        -60.6910    22.3550   -10.6330 hc         1 RV6       0.051533
     48 H82        -59.7040    23.3220   -11.7450 hc         1 RV6       0.051533
     49 H81        -59.3940    23.3910   -10.0000 hc         1 RV6       0.051533
     50 H92        -61.2650    26.6610   -10.7940 hc         1 RV6       0.051533
     51 H91        -59.7480    26.0490   -10.1000 hc         1 RV6       0.051533
     52 H93        -60.0490    25.9060   -11.8420 hc         1 RV6       0.051533
     53 H12        -64.1830    24.0970    -5.5240 hn         1 RV6       0.519000
     54 H62        -58.0890    25.0970    -6.6690 hn         1 RV6       0.509000
     55 H11        -58.6950    28.5850    -4.5670 ho         1 RV6       0.444000
     56 C7         -61.1870    24.4830   -10.6390 c3         1 RV6       0.108300
     57 O1         -58.2870    27.7560    -4.9020 oh         1 RV6      -0.669000
     58 C13        -57.9540    22.7720    -3.9220 c3         1 RV6      -0.085100
@<TRIPOS>BOND
     1     1    19 ar  
     2     1    28 ar  
     3     1    29 1   
     4     2    13 1   
     5     2    30 1   
     6     2    31 1   
     7     2    57 1   
     8     3    10 ar  
     9     3    14 ar  
    10     3    16 1   
    11     4     9 ar  
    12     4    24 ar  
    13     4    26 1   
    14     5    23 ar  
    15     5    24 ar  
    16     5    27 1   
    17     6     9 ar  
    18     6    22 1   
    19     6    23 ar  
    20     7    11 ar  
    21     7    15 ar  
    22     7    22 1   
    23     8    25 2   
    24     8    26 1   
    25     8    32 1   
    26     9    25 1   
    27    10    11 ar  
    28    10    33 1   
    29    11    34 1   
    30    12    13 1   
    31    12    38 1   
    32    12    39 1   
    33    12    58 1   
    34    13    27 1   
    35    13    40 1   
    36    14    15 ar  
    37    14    41 1   
    38    15    42 1   
    39    16    17 ar  
    40    16    28 ar  
    41    17    18 ar  
    42    17    43 1   
    43    18    19 ar  
    44    18    44 1   
    45    19    45 1   
    46    20    47 1   
    47    20    48 1   
    48    20    49 1   
    49    20    56 1   
    50    21    50 1   
    51    21    51 1   
    52    21    52 1   
    53    21    56 1   
    54    22    53 1   
    55    26    56 1   
    56    27    54 1   
    57    35    58 1   
    58    36    58 1   
    59    37    58 1   
    60    46    56 1   
    61    55    57 1   
@<TRIPOS>SUBSTRUCTURE
     1 RV6         1 TEMP              0 ****  ****    0 ROOT
