@<TRIPOS>MOLECULE
RV6
   58    61     1     0     0
SMALL
abcg2


@<TRIPOS>ATOM
      1 C23        -65.3110    23.6680     2.4430 ca         1 RV6       0.342900
      2 C11        -59.0560    26.6050    -3.7930 c3         1 RV6       0.139600
      3 C16        -63.8410    24.3340    -0.8220 cp         1 RV6      -0.183500
      4 C4         -61.4010    24.5020    -8.0660 ca         1 RV6       0.180500
      5 C3         -60.0710    24.9090    -6.3170 ca         1 RV6       0.439900
      6 C2         -62.2790    24.3900    -5.8550 ca         1 RV6       0.476900
      7 C1         -63.4330    24.2370    -3.6190 ca         1 RV6       0.327000
      8 C6         -63.2050    24.0120    -9.2300 cc         1 RV6       0.397700
      9 C5         -62.5020    24.2700    -7.2390 ca         1 RV6      -0.146600
     10 C15        -64.8630    23.9270    -1.6900 ca         1 RV6      -0.053000
     11 C14        -64.6680    23.8810    -3.0560 ca         1 RV6      -0.166000
     12 C12        -58.5220    24.1380    -3.6150 c3         1 RV6      -0.091400
     13 C10        -58.4020    25.4070    -4.4710 c3         1 RV6       0.265500
     14 C17        -62.6140    24.6840    -1.3930 ca         1 RV6      -0.053000
     15 C18        -62.4020    24.6380    -2.7630 ca         1 RV6      -0.166000
     16 C19        -64.0690    24.3860     0.6380 cp         1 RV6       0.418500
     17 C20        -63.2770    25.1810     1.4780 ca         1 RV6      -0.158000
     18 C21        -63.5260    25.1910     2.8410 ca         1 RV6      -0.071000
     19 C22        -64.5650    24.4160     3.3440 ca         1 RV6      -0.170000
     20 C8         -60.0650    23.3610   -10.7220 c3         1 RV6      -0.107600
     21 C9         -60.5700    25.8520   -10.7990 c3         1 RV6      -0.107600
     22 N1         -63.3250    24.1700    -5.0070 nu         1 RV6      -0.926900
     23 N2         -61.0610    24.7090    -5.4160 nb         1 RV6      -0.330000
     24 N3         -60.1720    24.8200    -7.6590 nb         1 RV6      -0.294000
     25 N4         -63.6250    23.9640    -7.9890 nd         1 RV6      -0.551100
     26 N5         -61.8700    24.3330    -9.3490 na         1 RV6      -0.299300
     27 N6         -58.8390    25.2350    -5.8520 nu         1 RV6      -0.922100
     28 N7         -65.0770    23.6450     1.1300 nb         1 RV6      -0.677000
     29 H231       -66.1340    23.0540     2.7930 h4         1 RV6       0.018100
     30 H112       -60.1400    26.4890    -3.7870 h1         1 RV6       0.037700
     31 H111       -58.7030    26.6540    -2.7570 h1         1 RV6       0.037700
     32 H61        -63.8070    23.8270   -10.1060 h5         1 RV6       0.062800
     33 H151       -65.8240    23.6490    -1.2780 ha         1 RV6       0.121000
     34 H141       -65.4780    23.5700    -3.7070 ha         1 RV6       0.131500
     35 H132       -57.9160    22.0580    -3.5900 hc         1 RV6       0.035700
     36 H133       -58.3880    22.6430    -5.1860 hc         1 RV6       0.035700
     37 H131       -56.8280    23.1080    -4.5050 hc         1 RV6       0.035700
     38 H121       -59.5710    23.9310    -3.4060 hc         1 RV6       0.053200
     39 H122       -58.0410    24.3470    -2.6560 hc         1 RV6       0.053200
     40 H101       -57.3370    25.6390    -4.5590 h1         1 RV6       0.057700
     41 H171       -61.7870    24.9840    -0.7630 ha         1 RV6       0.121000
     42 H181       -61.4460    24.9030    -3.1740 ha         1 RV6       0.131500
     43 H201       -62.4880    25.7940     1.0680 ha         1 RV6       0.121000
     44 H211       -62.9230    25.8020     3.5000 ha         1 RV6       0.117000
     45 H221       -64.7960    24.3930     4.4010 ha         1 RV6       0.123000
     46 H71        -61.8860    24.2690   -11.3870 h1         1 RV6       0.050700
     47 H83        -60.5080    22.3710   -10.6050 hc         1 RV6       0.051533
     48 H82        -59.5880    23.4140   -11.7020 hc         1 RV6       0.051533
     49 H81        -59.2990    23.4940    -9.9580 hc         1 RV6       0.051533
     50 H92        -61.3630    26.5980   -10.7280 hc         1 RV6       0.051533
     51 H91        -59.8160    26.0690   -10.0430 hc         1 RV6       0.051533
     52 H93        -60.1070    25.9320   -11.7840 hc         1 RV6       0.051533
     53 H12        -64.1780    23.9140    -5.4850 hn         1 RV6       0.519000
     54 H62        -58.1530    25.3810    -6.5720 hn         1 RV6       0.509000
     55 H11        -59.2020    28.5260    -4.1470 ho         1 RV6       0.444000
     56 C7         -61.1340    24.4460   -10.6170 c3         1 RV6       0.108300
     57 O1         -58.6880    27.7920    -4.5030 oh         1 RV6      -0.669000
     58 C13        -57.8770    22.9170    -4.2620 c3         1 RV6      -0.085100
@<TRIPOS>BOND
     1     1    19 ar  
     2     1    28 ar  
     3     1    29 1   
     4     2    13 1   
     5     2    30 1   
     6     2    31 1   
     7     2    57 1   
     8     3    10 ar  
     9     3    14 ar  
    10     3    16 1   
    11     4     9 ar  
    12     4    24 ar  
    13     4    26 1   
    14     5    23 ar  
    15     5    24 ar  
    16     5    27 1   
    17     6     9 ar  
    18     6    22 1   
    19     6    23 ar  
    20     7    11 ar  
    21     7    15 ar  
    22     7    22 1   
    23     8    25 2   
    24     8    26 1   
    25     8    32 1   
    26     9    25 1   
    27    10    11 ar  
    28    10    33 1   
    29    11    34 1   
    30    12    13 1   
    31    12    38 1   
    32    12    39 1   
    33    12    58 1   
    34    13    27 1   
    35    13    40 1   
    36    14    15 ar  
    37    14    41 1   
    38    15    42 1   
    39    16    17 ar  
    40    16    28 ar  
    41    17    18 ar  
    42    17    43 1   
    43    18    19 ar  
    44    18    44 1   
    45    19    45 1   
    46    20    47 1   
    47    20    48 1   
    48    20    49 1   
    49    20    56 1   
    50    21    50 1   
    51    21    51 1   
    52    21    52 1   
    53    21    56 1   
    54    22    53 1   
    55    26    56 1   
    56    27    54 1   
    57    35    58 1   
    58    36    58 1   
    59    37    58 1   
    60    46    56 1   
    61    55    57 1   
@<TRIPOS>SUBSTRUCTURE
     1 RV6         1 TEMP              0 ****  ****    0 ROOT
