@<TRIPOS>MOLECULE
RV8
   36    39     1     0     0
SMALL
No Charge or Current Charge


@<TRIPOS>ATOM
      1 N10          9.8420    -0.5050    22.7000 n          1 RV8      -0.375733
      2 C11         11.3080    -0.2110    22.7190 c3         1 RV8       0.118000
      3 C12         11.7370     0.8520    23.7380 cx         1 RV8       0.058967
      4 C13         11.1320     2.2290    23.7250 cx         1 RV8       0.084267
      5 C18          6.7640     0.5660    20.8470 c3         1 RV8       0.118000
      6 C19          6.4190    -0.3130    19.6460 cx         1 RV8       0.058967
      7 C20          6.1390     0.3040    18.3060 cx         1 RV8       0.084267
      8 C02          7.1010    -1.0180    22.7210 c          1 RV8       0.632000
      9 C04          7.4120    -2.6500    24.5710 c3         1 RV8       0.118000
     10 C05          7.5840    -4.0930    24.1020 cx         1 RV8       0.058967
     11 C06          6.5770    -5.1420    24.4770 cx         1 RV8       0.084267
     12 C08          9.3440    -1.4280    23.6200 c          1 RV8       0.632000
     13 C15          9.0330     0.1660    21.7830 c          1 RV8       0.632000
     14 N03          7.9690    -1.6570    23.6060 n          1 RV8      -0.375733
     15 N17          7.6670    -0.1140    21.8220 n          1 RV8      -0.375733
     16 O01          5.8970    -1.2360    22.7280 o          1 RV8      -0.523000
     17 O07          6.6270    -4.5940    23.1390 op         1 RV8      -0.425000
     18 O09         10.0800    -2.0200    24.3980 o          1 RV8      -0.523000
     19 O14         10.7750     1.2640    24.7420 op         1 RV8      -0.425000
     20 O16          9.5030     0.9670    20.9860 o          1 RV8      -0.523000
     21 O21          7.3880    -0.3760    18.5730 op         1 RV8      -0.425000
     22 H112        11.8590    -1.1350    22.9330 h1         1 RV8       0.086033
     23 H111        11.6460     0.1030    21.7230 h1         1 RV8       0.086033
     24 H121        12.7680     0.7610    24.0800 h1         1 RV8       0.101367
     25 H131        11.7300     3.0710    24.0740 h1         1 RV8       0.078533
     26 H132        10.3420     2.4670    23.0140 h1         1 RV8       0.078533
     27 H182         7.2160     1.5010    20.4930 h1         1 RV8       0.086033
     28 H181         5.8320     0.8560    21.3510 h1         1 RV8       0.086033
     29 H191         5.9330    -1.2580    19.8910 h1         1 RV8       0.101367
     30 H201         6.2130     1.3860    18.1870 h1         1 RV8       0.078533
     31 H202         5.4670    -0.2090    17.6170 h1         1 RV8       0.078533
     32 H041         7.9070    -2.5330    25.5440 h1         1 RV8       0.086033
     33 H042         6.3470    -2.4530    24.7520 h1         1 RV8       0.086033
     34 H051         8.6160    -4.4040    23.9370 h1         1 RV8       0.101367
     35 H062         5.7020    -4.8600    25.0630 h1         1 RV8       0.078533
     36 H061         6.9020    -6.1790    24.5690 h1         1 RV8       0.078533
@<TRIPOS>BOND
     1     1     2 1   
     2     1    12 1   
     3     1    13 1   
     4     2     3 1   
     5     2    22 1   
     6     2    23 1   
     7     3     4 1   
     8     3    19 1   
     9     3    24 1   
    10     4    19 1   
    11     4    25 1   
    12     4    26 1   
    13     5     6 1   
    14     5    15 1   
    15     5    27 1   
    16     5    28 1   
    17     6     7 1   
    18     6    21 1   
    19     6    29 1   
    20     7    21 1   
    21     7    30 1   
    22     7    31 1   
    23     8    14 1   
    24     8    15 1   
    25     8    16 2   
    26     9    10 1   
    27     9    14 1   
    28     9    32 1   
    29     9    33 1   
    30    10    11 1   
    31    10    17 1   
    32    10    34 1   
    33    11    17 1   
    34    11    35 1   
    35    11    36 1   
    36    12    14 1   
    37    12    18 2   
    38    13    15 1   
    39    13    20 2   
@<TRIPOS>SUBSTRUCTURE
     1 RV8         1 TEMP              0 ****  ****    0 ROOT
