@<TRIPOS>MOLECULE
RV8
   36    39     1     0     0
SMALL
bcc


@<TRIPOS>ATOM
      1 N10          9.8340    -0.5010    22.6350 n          1 RV8      -0.509733
      2 C11         11.2660    -0.2360    22.6060 c3         1 RV8       0.118000
      3 C12         11.6880     0.8520    23.5580 cx         1 RV8       0.035767
      4 C13         10.8410     1.9690    23.9530 cx         1 RV8       0.061067
      5 C18          6.7770     0.5340    20.8660 c3         1 RV8       0.118000
      6 C19          6.4750    -0.3420    19.6840 cx         1 RV8       0.035767
      7 C20          6.3010     0.2450    18.3610 cx         1 RV8       0.061067
      8 C02          7.1260    -1.0000    22.7200 c          1 RV8       0.841500
      9 C04          7.4790    -2.5460    24.5780 c3         1 RV8       0.118000
     10 C05          7.6000    -3.9660    24.1070 cx         1 RV8       0.035767
     11 C06          6.5700    -4.9430    24.4400 cx         1 RV8       0.061067
     12 C08          9.3710    -1.4050    23.5690 c          1 RV8       0.841500
     13 C15          9.0290     0.1570    21.7280 c          1 RV8       0.841500
     14 N03          8.0060    -1.5930    23.5980 n          1 RV8      -0.509733
     15 N17          7.6820    -0.1200    21.8150 n          1 RV8      -0.509733
     16 O01          5.9400    -1.2230    22.7390 o          1 RV8      -0.598500
     17 O07          6.6680    -4.3980    23.1340 op         1 RV8      -0.378600
     18 O09         10.1110    -2.0080    24.3070 o          1 RV8      -0.598500
     19 O14         11.0880     0.8800    24.8350 op         1 RV8      -0.378600
     20 O16          9.4790     0.9330    20.9200 o          1 RV8      -0.598500
     21 O21          7.4870    -0.4560    18.7010 op         1 RV8      -0.378600
     22 H112        11.7900    -1.1580    22.8470 h1         1 RV8       0.086033
     23 H111        11.5550     0.0410    21.5950 h1         1 RV8       0.086033
     24 H121        12.7660     1.0110    23.5490 h1         1 RV8       0.101367
     25 H131        11.3040     2.9140    24.2230 h1         1 RV8       0.078533
     26 H132         9.8220     2.0600    23.5890 h1         1 RV8       0.078533
     27 H182         7.2360     1.4680    20.5530 h1         1 RV8       0.086033
     28 H181         5.8530     0.7830    21.3850 h1         1 RV8       0.086033
     29 H191         5.9550    -1.2700    19.9090 h1         1 RV8       0.101367
     30 H201         6.4060     1.3190    18.2320 h1         1 RV8       0.078533
     31 H202         5.6460    -0.2410    17.6440 h1         1 RV8       0.078533
     32 H041         8.0260    -2.4190    25.5090 h1         1 RV8       0.086033
     33 H042         6.4410    -2.2870    24.7730 h1         1 RV8       0.086033
     34 H051         8.6160    -4.3240    23.9510 h1         1 RV8       0.101367
     35 H062         5.7020    -4.6330    25.0170 h1         1 RV8       0.078533
     36 H061         6.8390    -5.9890    24.5450 h1         1 RV8       0.078533
@<TRIPOS>BOND
     1     1     2 1   
     2     1    12 1   
     3     1    13 1   
     4     2     3 1   
     5     2    22 1   
     6     2    23 1   
     7     3     4 1   
     8     3    19 1   
     9     3    24 1   
    10     4    19 1   
    11     4    25 1   
    12     4    26 1   
    13     5     6 1   
    14     5    15 1   
    15     5    27 1   
    16     5    28 1   
    17     6     7 1   
    18     6    21 1   
    19     6    29 1   
    20     7    21 1   
    21     7    30 1   
    22     7    31 1   
    23     8    14 1   
    24     8    15 1   
    25     8    16 2   
    26     9    10 1   
    27     9    14 1   
    28     9    32 1   
    29     9    33 1   
    30    10    11 1   
    31    10    17 1   
    32    10    34 1   
    33    11    17 1   
    34    11    35 1   
    35    11    36 1   
    36    12    14 1   
    37    12    18 2   
    38    13    15 1   
    39    13    20 2   
@<TRIPOS>SUBSTRUCTURE
     1 RV8         1 TEMP              0 ****  ****    0 ROOT
