@<TRIPOS>MOLECULE
RVA
   32    33     1     0     0
SMALL
bcc


@<TRIPOS>ATOM
      1 C            4.4500     0.1330    -0.7180 c          1 RVA       0.939200
      2 C15         -1.2230    -2.6120    -0.4350 c          1 RVA       0.904800
      3 C1           3.1940    -0.2330     0.0300 ca         1 RVA      -0.270600
      4 C2           1.9530    -0.1380    -0.6170 ca         1 RVA       0.206100
      5 O2           1.8500     0.2740    -1.8780 oh         1 RVA      -0.570100
      6 C3           0.7880    -0.4810     0.0860 ca         1 RVA       0.085100
      7 O3          -0.3860    -0.3020    -0.5820 os         1 RVA      -0.250200
      8 C4           0.8560    -0.8950     1.4010 ca         1 RVA      -0.145000
      9 C5           2.0930    -1.0030     2.0370 ca         1 RVA      -0.211000
     10 C6           3.2480    -0.6740     1.3540 ca         1 RVA      -0.082000
     11 C7          -1.4420    -1.1060    -0.2770 ce         1 RVA       0.071900
     12 C8          -2.6370    -0.5820     0.0220 cf         1 RVA      -0.256200
     13 C9          -3.0630     0.8090     0.1630 ca         1 RVA       0.033200
     14 OA           5.5400     0.0400    -0.1500 o          1 RVA      -0.825800
     15 OB           4.2830     0.5240    -1.9180 o          1 RVA      -0.825800
     16 C10         -2.2360     1.9320     0.0160 ca         1 RVA      -0.144500
     17 C11         -2.7440     3.2120     0.1810 ca         1 RVA      -0.140000
     18 C12         -4.0830     3.4130     0.4950 ca         1 RVA      -0.185000
     19 C13         -4.9160     2.3120     0.6420 ca         1 RVA      -0.140000
     20 C14         -4.4100     1.0320     0.4770 ca         1 RVA      -0.144500
     21 O1          -2.1320    -3.3520    -0.0180 o          1 RVA      -0.806300
     22 O4          -0.1640    -2.9430    -0.9910 o          1 RVA      -0.806300
     23 HO2          2.8270     0.4540    -2.1370 ho         1 RVA       0.497000
     24 H4          -0.0530    -1.1340     1.9380 ha         1 RVA       0.122000
     25 H5           2.1380    -1.3360     3.0650 ha         1 RVA       0.093000
     26 H6           4.2100    -0.7530     1.8430 ha         1 RVA       0.121000
     27 H8          -3.4220    -1.3150     0.1650 ha         1 RVA       0.143000
     28 H10         -1.1930     1.8170    -0.2320 ha         1 RVA       0.141500
     29 H11         -2.0850     4.0620     0.0610 ha         1 RVA       0.103000
     30 H12         -4.4710     4.4150     0.6230 ha         1 RVA       0.097000
     31 H13         -5.9630     2.4490     0.8820 ha         1 RVA       0.103000
     32 H14         -5.0720     0.1820     0.5920 ha         1 RVA       0.141500
@<TRIPOS>BOND
     1     1     3 1   
     2     1    14 1   
     3     1    15 1   
     4     2    11 1   
     5     2    21 1   
     6     2    22 1   
     7     3     4 ar  
     8     3    10 ar  
     9     4     5 1   
    10     4     6 ar  
    11     5    23 1   
    12     6     7 1   
    13     6     8 ar  
    14     7    11 1   
    15     8     9 ar  
    16     8    24 1   
    17     9    10 ar  
    18     9    25 1   
    19    10    26 1   
    20    11    12 2   
    21    12    13 1   
    22    12    27 1   
    23    13    16 ar  
    24    13    20 ar  
    25    16    17 ar  
    26    16    28 1   
    27    17    18 ar  
    28    17    29 1   
    29    18    19 ar  
    30    18    30 1   
    31    19    20 ar  
    32    19    31 1   
    33    20    32 1   
@<TRIPOS>SUBSTRUCTURE
     1 RVA         1 TEMP              0 ****  ****    0 ROOT
