@<TRIPOS>MOLECULE
RVA
   32    33     1     0     0
SMALL
No Charge or Current Charge


@<TRIPOS>ATOM
      1 C            4.4730     0.2940    -0.7310 c          1 RVA       0.728600
      2 C15         -1.3590    -2.8100    -0.4220 c          1 RVA       0.694200
      3 C1           3.1860    -0.1120    -0.0400 ca         1 RVA      -0.270600
      4 C2           1.9460    -0.1320    -0.7250 ca         1 RVA       0.206100
      5 O2           1.9060     0.2310    -2.0420 oh         1 RVA      -0.609100
      6 C3           0.7560    -0.5200    -0.0590 ca         1 RVA       0.085100
      7 O3          -0.4480    -0.5120    -0.7430 os         1 RVA      -0.250200
      8 C4           0.8020    -0.8710     1.3060 ca         1 RVA      -0.127000
      9 C5           2.0250    -0.8530     1.9900 ca         1 RVA      -0.193000
     10 C6           3.2050    -0.4810     1.3270 ca         1 RVA      -0.064000
     11 C7          -1.5350    -1.2840    -0.3610 ce         1 RVA       0.071900
     12 C8          -2.6940    -0.6720     0.0570 cf         1 RVA      -0.306200
     13 C9          -3.0770     0.7500     0.2190 ca         1 RVA       0.033200
     14 OA           5.5120     0.2890    -0.0900 o          1 RVA      -0.720500
     15 OB           4.4190     0.6130    -1.9110 o          1 RVA      -0.720500
     16 C10         -2.1390     1.8070     0.2600 ca         1 RVA      -0.126500
     17 C11         -2.5640     3.1370     0.4250 ca         1 RVA      -0.122000
     18 C12         -3.9290     3.4310     0.5550 ca         1 RVA      -0.167000
     19 C13         -4.8710     2.3920     0.5260 ca         1 RVA      -0.122000
     20 C14         -4.4450     1.0620     0.3630 ca         1 RVA      -0.126500
     21 O1          -2.2830    -3.5240    -0.0460 o          1 RVA      -0.701000
     22 O4          -0.3190    -3.2810    -0.8670 o          1 RVA      -0.701000
     23 HO2          2.8580     0.4500    -2.2590 ho         1 RVA       0.536000
     24 H4          -0.1030    -1.1480     1.8390 ha         1 RVA       0.104000
     25 H5           2.0600    -1.1260     3.0420 ha         1 RVA       0.075000
     26 H6           4.1380    -0.4780     1.8880 ha         1 RVA       0.103000
     27 H8          -3.5040    -1.3510     0.3270 ha         1 RVA       0.193000
     28 H10         -1.0750     1.6160     0.1830 ha         1 RVA       0.123500
     29 H11         -1.8310     3.9400     0.4550 ha         1 RVA       0.085000
     30 H12         -4.2560     4.4600     0.6830 ha         1 RVA       0.079000
     31 H13         -5.9300     2.6150     0.6310 ha         1 RVA       0.085000
     32 H14         -5.1890     0.2690     0.3410 ha         1 RVA       0.123500
@<TRIPOS>BOND
     1     1     3 1   
     2     1    14 1   
     3     1    15 1   
     4     2    11 1   
     5     2    21 1   
     6     2    22 1   
     7     3     4 ar  
     8     3    10 ar  
     9     4     5 1   
    10     4     6 ar  
    11     5    23 1   
    12     6     7 1   
    13     6     8 ar  
    14     7    11 1   
    15     8     9 ar  
    16     8    24 1   
    17     9    10 ar  
    18     9    25 1   
    19    10    26 1   
    20    11    12 2   
    21    12    13 1   
    22    12    27 1   
    23    13    16 ar  
    24    13    20 ar  
    25    16    17 ar  
    26    16    28 1   
    27    17    18 ar  
    28    17    29 1   
    29    18    19 ar  
    30    18    30 1   
    31    19    20 ar  
    32    19    31 1   
    33    20    32 1   
@<TRIPOS>SUBSTRUCTURE
     1 RVA         1 TEMP              0 ****  ****    0 ROOT
