@<TRIPOS>MOLECULE
RVB
   31    31     1     0     0
SMALL
No Charge or Current Charge


@<TRIPOS>ATOM
      1 C10          3.4810     1.3960     2.1160 c3         1 RVB      -0.075600
      2 C11          4.0510     2.7160     0.0070 c3         1 RVB      -0.075600
      3 OA           0.7520    -1.4500    -2.3310 o          1 RVB      -0.704000
      4 O1          -4.1860    -2.3190    -0.1510 o          1 RVB      -0.736000
      5 OB           2.7590    -1.9150    -1.7240 o          1 RVB      -0.704000
      6 O4          -4.7160    -0.4190    -1.0190 o          1 RVB      -0.736000
      7 C8           2.8950     0.4850    -0.1620 c2         1 RVB      -0.296200
      8 C5          -1.5420     0.2670     2.1870 ca         1 RVB      -0.205000
      9 C4          -0.4390     0.6160     1.3920 ca         1 RVB      -0.126000
     10 C6          -2.6830    -0.3020     1.5990 ca         1 RVB      -0.077000
     11 O3           0.5990     0.7890    -0.7740 os         1 RVB      -0.290200
     12 C            1.7620    -1.2040    -1.6810 c          1 RVB       0.709200
     13 C7           1.7830     0.0650    -0.8250 ce         1 RVB       0.023900
     14 C2          -1.6150    -0.1980    -0.5880 ca         1 RVB       0.213100
     15 C3          -0.4690     0.3850     0.0050 ca         1 RVB      -0.013900
     16 C1          -2.7280    -0.5320     0.2080 ca         1 RVB      -0.179600
     17 C9           3.0550     1.7440     0.6730 c3         1 RVB      -0.015500
     18 H10          3.5430     2.3030     2.7300 hc         1 RVB       0.016533
     19 H10A         2.7550     0.7190     2.5810 hc         1 RVB       0.016533
     20 H10B         4.4620     0.9060     2.1260 hc         1 RVB       0.016533
     21 H11          3.7120     2.9810    -1.0020 hc         1 RVB       0.016533
     22 H11A         4.1390     3.6400     0.5900 hc         1 RVB       0.016533
     23 H11B         5.0470     2.2630    -0.0730 hc         1 RVB       0.016533
     24 HO2         -0.6750    -0.7510    -2.1460 ho         1 RVB       0.531000
     25 H8           3.8090    -0.1070    -0.2290 ha         1 RVB       0.181000
     26 H5          -1.5160     0.4450     3.2590 ha         1 RVB       0.068000
     27 H4           0.4300     1.0720     1.8540 ha         1 RVB       0.083000
     28 H6          -3.5370    -0.5650     2.2200 ha         1 RVB       0.103000
     29 H9           2.0960     2.2710     0.7360 hc         1 RVB       0.062700
     30 C12         -3.9500    -1.1450    -0.4020 c          1 RVB       0.726600
     31 O2          -1.6150    -0.4760    -1.9250 oh         1 RVB      -0.568100
@<TRIPOS>BOND
     1     1    17 1   
     2     1    18 1   
     3     1    19 1   
     4     1    20 1   
     5     2    17 1   
     6     2    21 1   
     7     2    22 1   
     8     2    23 1   
     9     3    12 1   
    10     4    30 1   
    11     5    12 1   
    12     6    30 1   
    13     7    13 2   
    14     7    17 1   
    15     7    25 1   
    16     8     9 ar  
    17     8    10 ar  
    18     8    26 1   
    19     9    15 ar  
    20     9    27 1   
    21    10    16 ar  
    22    10    28 1   
    23    11    13 1   
    24    11    15 1   
    25    12    13 1   
    26    14    15 ar  
    27    14    16 ar  
    28    14    31 1   
    29    16    30 1   
    30    17    29 1   
    31    24    31 1   
@<TRIPOS>SUBSTRUCTURE
     1 RVB         1 TEMP              0 ****  ****    0 ROOT
