@<TRIPOS>MOLECULE
RVB
   31    31     1     0     0
SMALL
abcg2


@<TRIPOS>ATOM
      1 C10          3.5140     1.4580     2.0780 c3         1 RVB      -0.075600
      2 C11          3.9770     2.7120    -0.0530 c3         1 RVB      -0.075600
      3 OA           0.7260    -1.3720    -2.2980 o          1 RVB      -0.704000
      4 O1          -4.6010    -1.9130     0.2080 o          1 RVB      -0.736000
      5 OB           2.7190    -1.9450    -1.5070 o          1 RVB      -0.704000
      6 O4          -4.3480    -0.5320    -1.5200 o          1 RVB      -0.736000
      7 C8           2.8520     0.5100    -0.1160 c2         1 RVB      -0.296200
      8 C5          -1.5000     0.0890     2.1990 ca         1 RVB      -0.205000
      9 C4          -0.4030     0.4690     1.4380 ca         1 RVB      -0.126000
     10 C6          -2.6270    -0.4060     1.5620 ca         1 RVB      -0.077000
     11 O3           0.5950     0.8090    -0.7130 os         1 RVB      -0.290200
     12 C            1.7380    -1.1960    -1.5680 c          1 RVB       0.709200
     13 C7           1.7550     0.0650    -0.7250 ce         1 RVB       0.023900
     14 C2          -1.5790    -0.1740    -0.5940 ca         1 RVB       0.213100
     15 C3          -0.4480     0.3470     0.0600 ca         1 RVB      -0.013900
     16 C1          -2.6970    -0.5300     0.1760 ca         1 RVB      -0.179600
     17 C9           3.0100     1.7740     0.6700 c3         1 RVB      -0.015500
     18 H10          3.6330     2.3730     2.6600 hc         1 RVB       0.016533
     19 H10A         2.8240     0.8060     2.6150 hc         1 RVB       0.016533
     20 H10B         4.4850     0.9570     2.0440 hc         1 RVB       0.016533
     21 H11          3.5990     2.9880    -1.0380 hc         1 RVB       0.016533
     22 H11A         4.1280     3.6300     0.5180 hc         1 RVB       0.016533
     23 H11B         4.9530     2.2400    -0.1880 hc         1 RVB       0.016533
     24 HO2         -0.6160    -0.6220    -2.1660 ho         1 RVB       0.531000
     25 H8           3.7440    -0.0990    -0.2230 ha         1 RVB       0.181000
     26 H5          -1.4720     0.1840     3.2760 ha         1 RVB       0.068000
     27 H4           0.4820     0.8770     1.9110 ha         1 RVB       0.083000
     28 H6          -3.4830    -0.7080     2.1520 ha         1 RVB       0.103000
     29 H9           2.0440     2.2780     0.7540 hc         1 RVB       0.062700
     30 C12         -3.9900    -1.0420    -0.4430 c          1 RVB       0.726600
     31 O2          -1.5570    -0.3470    -1.9190 oh         1 RVB      -0.568100
@<TRIPOS>BOND
     1     1    17 1   
     2     1    18 1   
     3     1    19 1   
     4     1    20 1   
     5     2    17 1   
     6     2    21 1   
     7     2    22 1   
     8     2    23 1   
     9     3    12 1   
    10     4    30 1   
    11     5    12 1   
    12     6    30 1   
    13     7    13 2   
    14     7    17 1   
    15     7    25 1   
    16     8     9 ar  
    17     8    10 ar  
    18     8    26 1   
    19     9    15 ar  
    20     9    27 1   
    21    10    16 ar  
    22    10    28 1   
    23    11    13 1   
    24    11    15 1   
    25    12    13 1   
    26    14    15 ar  
    27    14    16 ar  
    28    14    31 1   
    29    16    30 1   
    30    17    29 1   
    31    24    31 1   
@<TRIPOS>SUBSTRUCTURE
     1 RVB         1 TEMP              0 ****  ****    0 ROOT
