@<TRIPOS>MOLECULE
RVC
   29    30     1     0     0
SMALL
No Charge or Current Charge


@<TRIPOS>ATOM
      1 OB          -2.7710     2.9290     1.4940 o          1 RVC      -0.713000
      2 O1           4.2590    -1.6370    -0.2720 o          1 RVC      -0.723500
      3 OA          -4.4260     2.2370     0.3210 o          1 RVC      -0.713000
      4 O4           3.1570    -1.8350     1.5620 o          1 RVC      -0.723500
      5 C8          -2.9530    -0.0340    -0.5780 c2         1 RVC      -0.297200
      6 C5           1.2570     0.7700    -2.0060 ca         1 RVC      -0.188000
      7 C4           0.1100     1.0660    -1.2570 ca         1 RVC      -0.142000
      8 C6           2.2720    -0.0310    -1.4610 ca         1 RVC      -0.075000
      9 C10         -2.9980    -2.5850    -1.0010 cx         1 RVC      -0.158400
     10 C11         -1.8790    -2.3400    -0.0220 cx         1 RVC      -0.158400
     11 O3          -1.1580     0.8460     0.7900 os         1 RVC      -0.250200
     12 C           -3.2740     2.1180     0.7250 c          1 RVC       0.698200
     13 C7          -2.4390     0.9240     0.2470 ce         1 RVC       0.035900
     14 C2           1.0030    -0.2460     0.6040 ca         1 RVC       0.190100
     15 C3          -0.0310     0.5490     0.0450 ca         1 RVC       0.100100
     16 C1           2.1660    -0.5500    -0.1470 ca         1 RVC      -0.268600
     17 C9          -2.2520    -1.2730    -1.0240 cx         1 RVC      -0.023500
     18 HO2          1.7300    -1.2500     2.0130 ho         1 RVC       0.534000
     19 H8          -3.9740     0.0660    -0.9500 ha         1 RVC       0.184000
     20 H5           1.3620     1.1640    -3.0140 ha         1 RVC       0.072000
     21 H4          -0.6690     1.6920    -1.6860 ha         1 RVC       0.107000
     22 H6           3.1500    -0.2430    -2.0680 ha         1 RVC       0.101000
     23 H10         -2.8160    -3.2840    -1.8140 hc         1 RVC       0.051950
     24 H10A        -4.0150    -2.5900    -0.6150 hc         1 RVC       0.051950
     25 H11         -2.1420    -2.1710     1.0190 hc         1 RVC       0.051950
     26 H11A        -0.9410    -2.8660    -0.1760 hc         1 RVC       0.051950
     27 H9          -1.5820    -1.1260    -1.8690 hc         1 RVC       0.087700
     28 C12          3.2810    -1.4070     0.4220 c          1 RVC       0.727600
     29 O2           0.8860    -0.7280     1.8770 oh         1 RVC      -0.611100
@<TRIPOS>BOND
     1     1    12 1   
     2     2    28 1   
     3     3    12 1   
     4     4    28 1   
     5     5    13 2   
     6     5    17 1   
     7     5    19 1   
     8     6     7 ar  
     9     6     8 ar  
    10     6    20 1   
    11     7    15 ar  
    12     7    21 1   
    13     8    16 ar  
    14     8    22 1   
    15     9    10 1   
    16     9    17 1   
    17     9    23 1   
    18     9    24 1   
    19    10    17 1   
    20    10    25 1   
    21    10    26 1   
    22    11    13 1   
    23    11    15 1   
    24    12    13 1   
    25    14    15 ar  
    26    14    16 ar  
    27    14    29 1   
    28    16    28 1   
    29    17    27 1   
    30    18    29 1   
@<TRIPOS>SUBSTRUCTURE
     1 RVC         1 TEMP              0 ****  ****    0 ROOT
