@<TRIPOS>MOLECULE
RVC
   29    30     1     0     0
SMALL
bcc


@<TRIPOS>ATOM
      1 OB          -1.2750     2.3660     1.1150 o          1 RVC      -0.818300
      2 O1           5.0600     0.1240    -0.1840 o          1 RVC      -0.828800
      3 OA          -3.3130     2.2710     0.2060 o          1 RVC      -0.818300
      4 O4           3.9930    -0.6410     1.6100 o          1 RVC      -0.828800
      5 C8          -3.0040    -0.5140    -0.1250 c2         1 RVC      -0.247200
      6 C5           1.3790     0.9760    -2.0380 ca         1 RVC      -0.206000
      7 C4           0.2070     0.6680    -1.3450 ca         1 RVC      -0.160000
      8 C6           2.6070     0.7190    -1.4630 ca         1 RVC      -0.093000
      9 C10         -3.7230    -2.5840    -1.4530 cx         1 RVC      -0.158400
     10 C11         -4.0490    -2.8540    -0.0250 cx         1 RVC      -0.158400
     11 O3          -0.8170    -0.2430     0.6500 os         1 RVC      -0.250200
     12 C           -2.2240     1.7820     0.5650 c          1 RVC       0.908800
     13 C7          -2.0380     0.2930     0.3130 ce         1 RVC       0.035900
     14 C2           1.5160    -0.1490     0.5140 ca         1 RVC       0.190100
     15 C3           0.2690     0.1210    -0.0780 ca         1 RVC       0.100100
     16 C1           2.6910     0.1540    -0.1890 ca         1 RVC      -0.268600
     17 C9          -2.8850    -1.9580    -0.3680 cx         1 RVC      -0.023500
     18 HO2          2.5510    -0.7750     1.9150 ho         1 RVC       0.495000
     19 H8          -3.9730    -0.0630    -0.3070 ha         1 RVC       0.134000
     20 H5           1.3140     1.4100    -3.0270 ha         1 RVC       0.090000
     21 H4          -0.7550     0.8560    -1.8060 ha         1 RVC       0.125000
     22 H6           3.5210     0.9490    -1.9950 ha         1 RVC       0.119000
     23 H10         -3.2720    -3.3740    -2.0400 hc         1 RVC       0.051950
     24 H10A        -4.3840    -1.9340    -2.0130 hc         1 RVC       0.051950
     25 H11         -4.9340    -2.3910     0.3950 hc         1 RVC       0.051950
     26 H11A        -3.8200    -3.8310     0.3830 hc         1 RVC       0.051950
     27 H9          -1.9020    -2.3890    -0.2230 hc         1 RVC       0.087700
     28 C12          4.0290    -0.1350     0.4430 c          1 RVC       0.938200
     29 O2           1.5460    -0.6910     1.7300 oh         1 RVC      -0.572100
@<TRIPOS>BOND
     1     1    12 1   
     2     2    28 1   
     3     3    12 1   
     4     4    28 1   
     5     5    13 2   
     6     5    17 1   
     7     5    19 1   
     8     6     7 ar  
     9     6     8 ar  
    10     6    20 1   
    11     7    15 ar  
    12     7    21 1   
    13     8    16 ar  
    14     8    22 1   
    15     9    10 1   
    16     9    17 1   
    17     9    23 1   
    18     9    24 1   
    19    10    17 1   
    20    10    25 1   
    21    10    26 1   
    22    11    13 1   
    23    11    15 1   
    24    12    13 1   
    25    14    15 ar  
    26    14    16 ar  
    27    14    29 1   
    28    16    28 1   
    29    17    27 1   
    30    18    29 1   
@<TRIPOS>SUBSTRUCTURE
     1 RVC         1 TEMP              0 ****  ****    0 ROOT
