@<TRIPOS>MOLECULE
RVD
   28    28     1     0     0
SMALL
bcc


@<TRIPOS>ATOM
      1 CAA         -3.9970    -2.9400    -0.5350 c3         1 RVD      -0.079100
      2 OAB         -1.4430     1.6450     1.6440 o          1 RVD      -0.818800
      3 OAC          4.8280     0.2660    -0.0090 o          1 RVD      -0.830300
      4 OAD         -3.4640     1.9640     0.7510 o          1 RVD      -0.818800
      5 OAE          3.7230    -1.0910     1.3620 o          1 RVD      -0.830300
      6 CAG         -3.2590    -0.5480    -0.5240 c2         1 RVD      -0.273200
      7 CAH          1.2000     1.5070    -1.7430 ca         1 RVD      -0.208000
      8 CAI          0.0170     0.9370    -1.2710 ca         1 RVD      -0.158000
      9 CAJ          2.4100     1.1330    -1.1960 ca         1 RVD      -0.090000
     10 CAK         -3.2140    -1.8450    -1.2620 c3         1 RVD      -0.018200
     11 OAL         -1.0520    -0.6150     0.2430 os         1 RVD      -0.251200
     12 CAM         -2.4000     1.3380     0.9140 c          1 RVD       0.908800
     13 CAO         -2.2610     0.0290     0.1420 ce         1 RVD       0.023900
     14 CAP          1.2780    -0.3780     0.3160 ca         1 RVD       0.196100
     15 CAQ          0.0500     0.0110    -0.2460 ca         1 RVD       0.099100
     16 CAR          2.4660     0.1870    -0.1700 ca         1 RVD      -0.269600
     17 HAA         -4.0240    -3.8580    -1.1220 hc         1 RVD       0.014033
     18 HAAA        -3.5410    -3.1690     0.4290 hc         1 RVD       0.014033
     19 HAAB        -5.0270    -2.6320    -0.3510 hc         1 RVD       0.014033
     20 HOAF         2.2770    -1.3740     1.5140 ho         1 RVD       0.494000
     21 HAG         -4.2150    -0.0390    -0.4900 ha         1 RVD       0.130000
     22 HAH          1.1590     2.2370    -2.5410 ha         1 RVD       0.089000
     23 HAI         -0.9320     1.2220    -1.7100 ha         1 RVD       0.121000
     24 HAJ          3.3320     1.5690    -1.5590 ha         1 RVD       0.119000
     25 HAK         -2.1860    -2.1730    -1.4210 hc         1 RVD       0.025700
     26 HAKA        -3.6520    -1.6990    -2.2530 hc         1 RVD       0.025700
     27 CAN          3.7850    -0.2300     0.4270 c          1 RVD       0.938200
     28 OAF          1.2810    -1.2800     1.2950 oh         1 RVD      -0.570100
@<TRIPOS>BOND
     1     1    10 1   
     2     1    17 1   
     3     1    18 1   
     4     1    19 1   
     5     2    12 1   
     6     3    27 1   
     7     4    12 1   
     8     5    27 1   
     9     6    10 1   
    10     6    13 2   
    11     6    21 1   
    12     7     8 ar  
    13     7     9 ar  
    14     7    22 1   
    15     8    15 ar  
    16     8    23 1   
    17     9    16 ar  
    18     9    24 1   
    19    10    25 1   
    20    10    26 1   
    21    11    13 1   
    22    11    15 1   
    23    12    13 1   
    24    14    15 ar  
    25    14    16 ar  
    26    14    28 1   
    27    16    27 1   
    28    20    28 1   
@<TRIPOS>SUBSTRUCTURE
     1 RVD         1 TEMP              0 ****  ****    0 ROOT
