@<TRIPOS>MOLECULE
RVD
   28    28     1     0     0
SMALL
No Charge or Current Charge


@<TRIPOS>ATOM
      1 CAA         -2.3170    -2.6340    -0.4780 c3         1 RVD      -0.079100
      2 OAB         -2.9780     2.2140     2.0930 o          1 RVD      -0.713500
      3 OAC          4.2420    -1.1870    -0.7680 o          1 RVD      -0.725000
      4 OAD         -4.6460     1.7760     0.8200 o          1 RVD      -0.713500
      5 OAE          3.2150    -1.9840     0.9430 o          1 RVD      -0.725000
      6 CAG         -3.1610    -0.2320    -0.5730 c2         1 RVD      -0.323200
      7 CAH          0.9750     1.2830    -1.7830 ca         1 RVD      -0.190000
      8 CAI         -0.1770     1.2460    -0.9840 ca         1 RVD      -0.140000
      9 CAJ          2.0780     0.4720    -1.4750 ca         1 RVD      -0.072000
     10 CAK         -2.4950    -1.3670    -1.3340 c3         1 RVD      -0.018200
     11 OAL         -1.3600     0.3510     0.9270 os         1 RVD      -0.251200
     12 CAM         -3.4870     1.5850     1.1720 c          1 RVD       0.698200
     13 CAO         -2.6490     0.5320     0.4350 ce         1 RVD       0.023900
     14 CAP          0.8890    -0.4240     0.4500 ca         1 RVD       0.196100
     15 CAQ         -0.2320     0.3840     0.1280 ca         1 RVD       0.099100
     16 CAR          2.0570    -0.3930    -0.3540 ca         1 RVD      -0.269600
     17 HAA         -1.8540    -3.4320    -1.0700 hc         1 RVD       0.014033
     18 HAAA        -1.6750    -2.4350     0.3880 hc         1 RVD       0.014033
     19 HAAB        -3.2860    -2.9940    -0.1140 hc         1 RVD       0.014033
     20 HOAF         1.7490    -1.6930     1.5330 ho         1 RVD       0.533000
     21 HAG         -4.1900    -0.0620    -0.8930 ha         1 RVD       0.180000
     22 HAH          1.0140     1.9450    -2.6450 ha         1 RVD       0.071000
     23 HAI         -1.0220     1.8840    -1.2290 ha         1 RVD       0.103000
     24 HAJ          2.9560     0.5240    -2.1160 ha         1 RVD       0.101000
     25 HAK         -1.5220    -1.0600    -1.7330 hc         1 RVD       0.025700
     26 HAKA        -3.1050    -1.6260    -2.2080 hc         1 RVD       0.025700
     27 CAN          3.2660    -1.2530    -0.0380 c          1 RVD       0.727600
     28 OAF          0.8540    -1.2440     1.5420 oh         1 RVD      -0.609100
@<TRIPOS>BOND
     1     1    10 1   
     2     1    17 1   
     3     1    18 1   
     4     1    19 1   
     5     2    12 1   
     6     3    27 1   
     7     4    12 1   
     8     5    27 1   
     9     6    10 1   
    10     6    13 2   
    11     6    21 1   
    12     7     8 ar  
    13     7     9 ar  
    14     7    22 1   
    15     8    15 ar  
    16     8    23 1   
    17     9    16 ar  
    18     9    24 1   
    19    10    25 1   
    20    10    26 1   
    21    11    13 1   
    22    11    15 1   
    23    12    13 1   
    24    14    15 ar  
    25    14    16 ar  
    26    14    28 1   
    27    16    27 1   
    28    20    28 1   
@<TRIPOS>SUBSTRUCTURE
     1 RVD         1 TEMP              0 ****  ****    0 ROOT
