@<TRIPOS>MOLECULE
RVE
   22    22     1     0     0
SMALL
No Charge or Current Charge


@<TRIPOS>ATOM
      1 C8           3.5390    -0.9330     1.5250 c2         1 RVE      -0.423000
      2 OA           4.2980     0.3630    -0.9280 o          1 RVE      -0.715000
      3 OB          -3.6240    -1.3060    -0.5680 o          1 RVE      -0.724500
      4 O4           2.3390     0.0840    -1.7490 o          1 RVE      -0.715000
      5 O1          -4.3470     0.6980    -0.2920 o          1 RVE      -0.724500
      6 O2          -1.1840    -1.9100    -0.1580 oh         1 RVE      -0.610100
      7 C5          -0.5360     2.0870     0.8700 ca         1 RVE      -0.191000
      8 C4           0.5350     1.1820     0.9070 ca         1 RVE      -0.137000
      9 C6          -1.8150     1.6580     0.4850 ca         1 RVE      -0.072000
     10 O3           1.3710    -1.0760     0.5990 os         1 RVE      -0.252200
     11 C            3.1400    -0.0260    -0.8280 c          1 RVE       0.698200
     12 C9          -3.4500    -0.1310    -0.2740 c          1 RVE       0.728600
     13 C7           2.7030    -0.7080     0.4810 ce         1 RVE       0.012900
     14 C3           0.3280    -0.1660     0.5480 ca         1 RVE       0.100100
     15 C2          -0.9690    -0.6010     0.1700 ca         1 RVE       0.196100
     16 C1          -2.0560     0.3080     0.1310 ca         1 RVE      -0.270600
     17 H8           4.5910    -0.6500     1.4890 ha         1 RVE       0.145000
     18 H8A          3.1870    -1.4070     2.4410 ha         1 RVE       0.145000
     19 HO2         -2.1600    -1.9440    -0.3820 ho         1 RVE       0.533000
     20 HAG         -0.3740     3.1260     1.1450 ha         1 RVE       0.071000
     21 HAH          1.5160     1.5280     1.2190 ha         1 RVE       0.104000
     22 HAI         -2.6240     2.3860     0.4680 ha         1 RVE       0.100000
@<TRIPOS>BOND
     1     1    13 2   
     2     1    17 1   
     3     1    18 1   
     4     2    11 1   
     5     3    12 1   
     6     4    11 1   
     7     5    12 1   
     8     6    15 1   
     9     6    19 1   
    10     7     8 ar  
    11     7     9 ar  
    12     7    20 1   
    13     8    14 ar  
    14     8    21 1   
    15     9    16 ar  
    16     9    22 1   
    17    10    13 1   
    18    10    14 1   
    19    11    13 1   
    20    12    16 1   
    21    14    15 ar  
    22    15    16 ar  
@<TRIPOS>SUBSTRUCTURE
     1 RVE         1 TEMP              0 ****  ****    0 ROOT
