@<TRIPOS>MOLECULE
RVE
   22    22     1     0     0
SMALL
bcc


@<TRIPOS>ATOM
      1 C8           3.4920    -0.9960     1.4760 c2         1 RVE      -0.323000
      2 OA           4.1420     0.5030    -0.8340 o          1 RVE      -0.820300
      3 OB          -3.4440    -1.3810    -0.5700 o          1 RVE      -0.829800
      4 O4           2.1460    -0.0260    -1.6870 o          1 RVE      -0.820300
      5 O1          -4.2940     0.6600    -0.3310 o          1 RVE      -0.829800
      6 O2          -1.0850    -1.8560    -0.1220 oh         1 RVE      -0.571100
      7 C5          -0.5230     2.1130     0.8490 ca         1 RVE      -0.209000
      8 C4           0.5360     1.2080     0.9190 ca         1 RVE      -0.155000
      9 C6          -1.7740     1.6780     0.4590 ca         1 RVE      -0.090000
     10 O3           1.3150    -1.0660     0.6650 os         1 RVE      -0.252200
     11 C            3.0020     0.0080    -0.7890 c          1 RVE       0.908800
     12 C9          -3.3580    -0.1430    -0.2880 c          1 RVE       0.939200
     13 C7           2.6200    -0.6720     0.5270 ce         1 RVE       0.012900
     14 C3           0.3440    -0.1170     0.5800 ca         1 RVE       0.100100
     15 C2          -0.9260    -0.5700     0.1840 ca         1 RVE       0.196100
     16 C1          -1.9920     0.3390     0.1300 ca         1 RVE      -0.270600
     17 H8           4.5390    -0.7690     1.3510 ha         1 RVE       0.095000
     18 H8A          3.1920    -1.5110     2.3800 ha         1 RVE       0.095000
     19 HO2         -2.0800    -1.9100    -0.3600 ho         1 RVE       0.494000
     20 HAG         -0.3560     3.1500     1.1080 ha         1 RVE       0.089000
     21 HAH          1.5130     1.5480     1.2440 ha         1 RVE       0.122000
     22 HAI         -2.6020     2.3730     0.4080 ha         1 RVE       0.118000
@<TRIPOS>BOND
     1     1    13 2   
     2     1    17 1   
     3     1    18 1   
     4     2    11 1   
     5     3    12 1   
     6     4    11 1   
     7     5    12 1   
     8     6    15 1   
     9     6    19 1   
    10     7     8 ar  
    11     7     9 ar  
    12     7    20 1   
    13     8    14 ar  
    14     8    21 1   
    15     9    16 ar  
    16     9    22 1   
    17    10    13 1   
    18    10    14 1   
    19    11    13 1   
    20    12    16 1   
    21    14    15 ar  
    22    15    16 ar  
@<TRIPOS>SUBSTRUCTURE
     1 RVE         1 TEMP              0 ****  ****    0 ROOT
