@<TRIPOS>MOLECULE
RVF
   39    42     1     0     0
SMALL
No Charge or Current Charge


@<TRIPOS>ATOM
      1 C18        -47.5790   -30.0490     5.6510 ca         1 RVF      -0.055000
      2 C17        -48.4550   -29.8450     4.5420 ca         1 RVF      -0.147600
      3 C15        -47.9500   -29.7530     3.1170 c          1 RVF       0.607700
      4 C13        -45.8900   -29.7970     1.6610 c3         1 RVF       0.189200
      5 C12        -44.8830   -28.6700     1.6420 cc         1 RVF      -0.181400
      6 C11        -44.8210   -27.6380     0.6390 ca         1 RVF      -0.087800
      7 C10        -45.6320   -27.4100    -0.4850 ca         1 RVF      -0.066000
      8 C20        -49.4660   -30.0020     7.1370 ca         1 RVF      -0.065200
      9 C19        -48.0860   -30.1290     6.9660 ca         1 RVF      -0.129000
     10 C04        -43.8230   -28.4010     2.5320 cd         1 RVF      -0.082300
     11 C06        -43.7700   -26.8200     0.9380 ca         1 RVF      -0.061200
     12 C07        -43.4480   -25.7130     0.1410 ca         1 RVF      -0.130000
     13 C08        -44.2440   -25.4570    -0.9960 ca         1 RVF      -0.120000
     14 C09        -45.3330   -26.3030    -1.3070 ca         1 RVF      -0.162000
     15 C22        -51.5210   -29.8610     7.8570 cc         1 RVF       0.607100
     16 C25        -50.3300   -29.8070     6.0950 ca         1 RVF       0.070400
     17 C26        -49.8510   -29.7240     4.7800 ca         1 RVF      -0.017000
     18 N05        -43.1300   -27.2460     2.0830 na         1 RVF      -0.203700
     19 N14        -46.5950   -29.8750     2.9320 ns         1 RVF      -0.491900
     20 N21        -50.2200   -30.0390     8.2700 na         1 RVF      -0.335600
     21 N24        -51.6520   -29.7140     6.5390 nd         1 RVF      -0.652100
     22 O01        -44.1170   -30.1470     4.1120 o          1 RVF      -0.715000
     23 O03        -42.4800   -28.7960     4.4050 o          1 RVF      -0.715000
     24 O16        -48.7080   -29.5790     2.1710 o          1 RVF      -0.665100
     25 O23        -52.5300   -29.8430     8.7150 oh         1 RVF      -0.620600
     26 H181       -46.5050   -30.1470     5.5160 ha         1 RVF       0.154000
     27 H131       -46.6070   -29.6750     0.8400 h1         1 RVF       0.046200
     28 H132       -45.3640   -30.7470     1.4990 h1         1 RVF       0.046200
     29 H101       -46.4690   -28.0620    -0.7210 ha         1 RVF       0.109000
     30 H191       -47.4240   -30.2840     7.8150 ha         1 RVF       0.119000
     31 H071       -42.6090   -25.0670     0.3890 ha         1 RVF       0.100000
     32 H081       -44.0190   -24.6050    -1.6340 ha         1 RVF       0.089000
     33 H091       -45.9430   -26.1010    -2.1840 ha         1 RVF       0.092000
     34 H261       -50.5510   -29.5680     3.9630 ha         1 RVF       0.146000
     35 H051       -42.3230   -26.8230     2.5300 hn         1 RVF       0.365000
     36 H141       -46.0120   -30.0220     3.7490 hn         1 RVF       0.376500
     37 H211       -49.9140   -30.1670     9.2230 hn         1 RVF       0.360000
     38 H231       -53.2990   -29.7030     8.1270 ho         1 RVF       0.500000
     39 C02        -43.4500   -29.1820     3.7660 c          1 RVF       0.725200
@<TRIPOS>BOND
     1     1     2 ar  
     2     1     9 ar  
     3     1    26 1   
     4     2     3 1   
     5     2    17 ar  
     6     3    19 1   
     7     3    24 2   
     8     4     5 1   
     9     4    19 1   
    10     4    27 1   
    11     4    28 1   
    12     5     6 1   
    13     5    10 2   
    14     6     7 ar  
    15     6    11 ar  
    16     7    14 ar  
    17     7    29 1   
    18     8     9 ar  
    19     8    16 ar  
    20     8    20 1   
    21     9    30 1   
    22    10    18 1   
    23    10    39 1   
    24    11    12 ar  
    25    11    18 1   
    26    12    13 ar  
    27    12    31 1   
    28    13    14 ar  
    29    13    32 1   
    30    14    33 1   
    31    15    20 1   
    32    15    21 2   
    33    15    25 1   
    34    16    17 ar  
    35    16    21 1   
    36    17    34 1   
    37    18    35 1   
    38    19    36 1   
    39    20    37 1   
    40    22    39 1   
    41    23    39 1   
    42    25    38 1   
@<TRIPOS>SUBSTRUCTURE
     1 RVF         1 TEMP              0 ****  ****    0 ROOT
