@<TRIPOS>MOLECULE
RVF
   39    42     1     0     0
SMALL
abcg2


@<TRIPOS>ATOM
      1 C18        -47.6550   -29.4860     5.6630 ca         1 RVF      -0.055000
      2 C17        -48.5300   -29.6690     4.5770 ca         1 RVF      -0.147600
      3 C15        -48.0680   -29.5880     3.1510 c          1 RVF       0.607700
      4 C13        -46.1140   -29.6680     1.6420 c3         1 RVF       0.189200
      5 C12        -44.9980   -28.6650     1.6090 cc         1 RVF      -0.181400
      6 C11        -44.8350   -27.6610     0.5970 ca         1 RVF      -0.087800
      7 C10        -45.5780   -27.2920    -0.5360 ca         1 RVF      -0.066000
      8 C20        -49.4420   -29.8310     7.1780 ca         1 RVF      -0.065200
      9 C19        -48.0970   -29.5600     6.9790 ca         1 RVF      -0.129000
     10 C04        -43.9280   -28.5320     2.4770 cd         1 RVF      -0.082300
     11 C06        -43.6440   -26.9450     0.9030 ca         1 RVF      -0.061200
     12 C07        -43.1930   -25.8850     0.1130 ca         1 RVF      -0.130000
     13 C08        -43.9490   -25.5450    -0.9960 ca         1 RVF      -0.120000
     14 C09        -45.1320   -26.2410    -1.3180 ca         1 RVF      -0.162000
     15 C22        -51.4830   -30.2390     7.8950 cc         1 RVF       0.607100
     16 C25        -50.3420   -30.0170     6.1040 ca         1 RVF       0.070400
     17 C26        -49.8850   -29.9290     4.7970 ca         1 RVF      -0.017000
     18 N05        -43.1250   -27.4980     2.0380 na         1 RVF      -0.203700
     19 N14        -46.7540   -29.7560     2.9440 ns         1 RVF      -0.491900
     20 N21        -50.2130   -29.9780     8.3170 na         1 RVF      -0.335600
     21 N24        -51.6220   -30.2730     6.5960 nd         1 RVF      -0.652100
     22 O01        -44.3190   -30.1350     4.1820 o          1 RVF      -0.715000
     23 O03        -42.4110   -28.9520     4.2110 o          1 RVF      -0.715000
     24 O16        -48.8770   -29.3930     2.2320 o          1 RVF      -0.665100
     25 O23        -52.4330   -30.4290     8.8070 oh         1 RVF      -0.620600
     26 H181       -46.6110   -29.2640     5.4880 ha         1 RVF       0.154000
     27 H131       -46.8740   -29.3980     0.9140 h1         1 RVF       0.046200
     28 H132       -45.7390   -30.6590     1.3660 h1         1 RVF       0.046200
     29 H101       -46.4890   -27.8180    -0.7950 ha         1 RVF       0.109000
     30 H191       -47.4190   -29.4070     7.8080 ha         1 RVF       0.119000
     31 H071       -42.2840   -25.3500     0.3620 ha         1 RVF       0.100000
     32 H081       -43.6270   -24.7270    -1.6290 ha         1 RVF       0.089000
     33 H091       -45.6970   -25.9450    -2.1920 ha         1 RVF       0.092000
     34 H261       -50.5530   -30.0610     3.9580 ha         1 RVF       0.146000
     35 H051       -42.2870   -27.2220     2.5240 hn         1 RVF       0.365000
     36 H141       -46.0940   -29.9490     3.6960 hn         1 RVF       0.376500
     37 H211       -49.9090   -29.9270     9.2770 hn         1 RVF       0.360000
     38 H231       -53.2720   -30.6090     8.3560 ho         1 RVF       0.500000
     39 C02        -43.5230   -29.2690     3.7220 c          1 RVF       0.725200
@<TRIPOS>BOND
     1     1     2 ar  
     2     1     9 ar  
     3     1    26 1   
     4     2     3 1   
     5     2    17 ar  
     6     3    19 1   
     7     3    24 2   
     8     4     5 1   
     9     4    19 1   
    10     4    27 1   
    11     4    28 1   
    12     5     6 1   
    13     5    10 2   
    14     6     7 ar  
    15     6    11 ar  
    16     7    14 ar  
    17     7    29 1   
    18     8     9 ar  
    19     8    16 ar  
    20     8    20 1   
    21     9    30 1   
    22    10    18 1   
    23    10    39 1   
    24    11    12 ar  
    25    11    18 1   
    26    12    13 ar  
    27    12    31 1   
    28    13    14 ar  
    29    13    32 1   
    30    14    33 1   
    31    15    20 1   
    32    15    21 2   
    33    15    25 1   
    34    16    17 ar  
    35    16    21 1   
    36    17    34 1   
    37    18    35 1   
    38    19    36 1   
    39    20    37 1   
    40    22    39 1   
    41    23    39 1   
    42    25    38 1   
@<TRIPOS>SUBSTRUCTURE
     1 RVF         1 TEMP              0 ****  ****    0 ROOT
