@<TRIPOS>MOLECULE
RVG
   29    29     1     0     0
SMALL
bcc


@<TRIPOS>ATOM
      1 O4          29.7310     4.4630    41.1550 oh         1 RVG      -0.590800
      2 C4          29.5090     4.1820    42.5160 c6         1 RVG       0.096100
      3 C5          30.7700     3.6060    43.1750 c6         1 RVG       0.122100
      4 O5          30.4870     3.2470    44.5170 os         1 RVG      -0.392600
      5 C6          31.9180     4.5930    43.1980 c3         1 RVG      -0.090100
      6 C3          28.3650     3.1780    42.6140 c6         1 RVG       0.132100
      7 O3          27.1640     3.7360    42.1410 os         1 RVG      -0.407600
      8 C3O         26.7300     3.2530    40.8920 c3         1 RVG       0.127700
      9 C2          28.1840     2.7490    44.0660 c6         1 RVG       0.065100
     10 O2          27.2630     1.6920    44.1880 os         1 RVG      -0.421600
     11 C2O         25.9610     2.0560    44.5880 c3         1 RVG       0.128700
     12 C1          29.5190     2.2510    44.6250 c6         1 RVG       0.359900
     13 H4          29.2220     5.0920    43.0660 h1         1 RVG       0.055700
     14 H5          31.0750     2.7110    42.6090 h1         1 RVG       0.047700
     15 H61         32.7860     4.1690    43.7030 hc         1 RVG       0.048367
     16 H62         32.2290     4.8470    42.1850 hc         1 RVG       0.048367
     17 H63         31.6360     5.5150    43.7110 hc         1 RVG       0.048367
     18 H3          28.6390     2.2870    42.0260 h1         1 RVG       0.058700
     19 H22         25.7970     3.7630    40.6510 h1         1 RVG       0.033700
     20 H23         27.4480     3.4530    40.0930 h1         1 RVG       0.033700
     21 H24         26.5320     2.1750    40.9170 h1         1 RVG       0.033700
     22 H2          27.8680     3.6170    44.6650 h1         1 RVG       0.072700
     23 H26         25.4200     1.1370    44.8110 h1         1 RVG       0.035367
     24 H27         25.9710     2.6730    45.4930 h1         1 RVG       0.035367
     25 H28         25.4200     2.5980    43.8090 h1         1 RVG       0.035367
     26 H1          29.8290     1.3570    44.0490 h2         1 RVG       0.025700
     27 HO4         30.2150     5.2910    41.0870 ho         1 RVG       0.409000
     28 O1          29.4500     1.9710    45.9820 oh         1 RVG      -0.580800
     29 HO1         28.8230     1.2510    46.1110 ho         1 RVG       0.432000
@<TRIPOS>BOND
     1     1     2 1   
     2     1    27 1   
     3     2     3 1   
     4     2     6 1   
     5     2    13 1   
     6     3     4 1   
     7     3     5 1   
     8     3    14 1   
     9     4    12 1   
    10     5    15 1   
    11     5    16 1   
    12     5    17 1   
    13     6     7 1   
    14     6     9 1   
    15     6    18 1   
    16     7     8 1   
    17     8    19 1   
    18     8    20 1   
    19     8    21 1   
    20     9    10 1   
    21     9    12 1   
    22     9    22 1   
    23    10    11 1   
    24    11    23 1   
    25    11    24 1   
    26    11    25 1   
    27    12    26 1   
    28    12    28 1   
    29    28    29 1   
@<TRIPOS>SUBSTRUCTURE
     1 RVG         1 TEMP              0 ****  ****    0 ROOT
