@<TRIPOS>MOLECULE
RVG
   29    29     1     0     0
SMALL
No Charge or Current Charge


@<TRIPOS>ATOM
      1 O4          29.6870     4.2230    41.0480 oh         1 RVG      -0.713000
      2 C4          29.4750     4.0310    42.4650 c6         1 RVG       0.119300
      3 C5          30.8000     3.5490    43.1440 c6         1 RVG       0.145300
      4 O5          30.5850     3.3070    44.5470 os         1 RVG      -0.439000
      5 C6          31.9500     4.5850    43.0520 c3         1 RVG      -0.090100
      6 C3          28.2870     3.0320    42.7600 c6         1 RVG       0.155300
      7 O3          27.0050     3.5690    42.3210 os         1 RVG      -0.454000
      8 C3O         26.7310     3.6430    40.9090 c3         1 RVG       0.150900
      9 C2          28.2240     2.6890    44.2910 c6         1 RVG       0.088300
     10 O2          27.2850     1.6240    44.6390 os         1 RVG      -0.468000
     11 C2O         25.8750     1.8580    44.4490 c3         1 RVG       0.151900
     12 C1          29.6370     2.2680    44.7880 c6         1 RVG       0.406300
     13 H4          29.2030     4.9930    42.9260 h1         1 RVG       0.055700
     14 H5          31.1370     2.6130    42.6730 h1         1 RVG       0.047700
     15 H61         32.8350     4.2360    43.5970 hc         1 RVG       0.048367
     16 H62         32.2550     4.7530    42.0120 hc         1 RVG       0.048367
     17 H63         31.6530     5.5510    43.4770 hc         1 RVG       0.048367
     18 H3          28.4760     2.0940    42.2170 h1         1 RVG       0.058700
     19 H22         25.6610     3.8190    40.7430 h1         1 RVG       0.033700
     20 H23         27.2740     4.4700    40.4370 h1         1 RVG       0.033700
     21 H24         27.0020     2.7060    40.4050 h1         1 RVG       0.033700
     22 H2          27.9340     3.5990    44.8360 h1         1 RVG       0.072700
     23 H26         25.2920     1.0790    44.9560 h1         1 RVG       0.035367
     24 H27         25.5780     2.8300    44.8650 h1         1 RVG       0.035367
     25 H28         25.6070     1.8300    43.3860 h1         1 RVG       0.035367
     26 H1          29.9520     1.3530    44.2610 h2         1 RVG       0.025700
     27 HO4         30.1500     5.0850    40.9350 ho         1 RVG       0.508000
     28 O1          29.6200     2.0200    46.1870 oh         1 RVG      -0.703000
     29 HO1         28.7920     1.5010    46.3170 ho         1 RVG       0.531000
@<TRIPOS>BOND
     1     1     2 1   
     2     1    27 1   
     3     2     3 1   
     4     2     6 1   
     5     2    13 1   
     6     3     4 1   
     7     3     5 1   
     8     3    14 1   
     9     4    12 1   
    10     5    15 1   
    11     5    16 1   
    12     5    17 1   
    13     6     7 1   
    14     6     9 1   
    15     6    18 1   
    16     7     8 1   
    17     8    19 1   
    18     8    20 1   
    19     8    21 1   
    20     9    10 1   
    21     9    12 1   
    22     9    22 1   
    23    10    11 1   
    24    11    23 1   
    25    11    24 1   
    26    11    25 1   
    27    12    26 1   
    28    12    28 1   
    29    28    29 1   
@<TRIPOS>SUBSTRUCTURE
     1 RVG         1 TEMP              0 ****  ****    0 ROOT
