@<TRIPOS>MOLECULE
RVH
   40    43     1     0     0
SMALL
abcg2


@<TRIPOS>ATOM
      1 C1         -61.6660    25.4770    -9.7500 ca         1 RVH      -0.102000
      2 C2         -61.5600    25.4660    -8.3630 ca         1 RVH      -0.108000
      3 C3         -62.5310    24.7580    -7.6670 ca         1 RVH      -0.072200
      4 C4         -63.5860    24.0760    -8.3140 ca         1 RVH       0.088400
      5 C5         -63.6750    24.0970    -9.7050 ca         1 RVH      -0.059000
      6 C6         -62.7070    24.8030   -10.4090 ca         1 RVH      -0.129000
      7 C9         -64.6370    22.9730    -2.6130 c3         1 RVH       0.058700
      8 C13        -65.2060    24.8310    -1.1150 c          1 RVH       0.579600
      9 C14        -62.8160    24.9960     1.6410 ca         1 RVH      -0.101000
     10 C10        -63.3360    23.5390    -0.4690 c5         1 RVH       0.148300
     11 C11        -63.5380    24.6590     0.5070 ca         1 RVH      -0.079300
     12 C12        -64.6440    25.4120     0.1240 ca         1 RVH      -0.155600
     13 C15        -63.2270    26.1060     2.3770 ca         1 RVH      -0.084000
     14 C16        -64.3370    26.8610     1.9880 ca         1 RVH      -0.122000
     15 C17        -65.0610    26.5200     0.8510 ca         1 RVH      -0.035000
     16 C18        -64.2100    21.5100    -2.4690 c3         1 RVH      -0.101100
     17 C7         -63.8580    23.7680    -6.2140 cc         1 RVH       0.483400
     18 C8         -63.8740    23.6370    -3.7680 c          1 RVH       0.592100
     19 N1         -64.4030    23.4640    -7.3700 nd         1 RVH      -0.628100
     20 N2         -62.7380    24.5370    -6.3160 na         1 RVH      -0.325600
     21 N3         -64.3750    23.3500    -5.0050 ns         1 RVH      -0.406400
     22 N4         -64.4520    23.7260    -1.3950 n          1 RVH      -0.413800
     23 O2         -62.8900    24.3400    -3.5940 o          1 RVH      -0.591100
     24 H1         -60.9310    26.0160   -10.3330 ha         1 RVH       0.112000
     25 H2         -60.7600    25.9840    -7.8510 ha         1 RVH       0.119000
     26 H3         -64.4770    23.5800   -10.2170 ha         1 RVH       0.127000
     27 H4         -62.7540    24.8360   -11.4900 ha         1 RVH       0.113000
     28 H7         -65.7010    23.0140    -2.8490 h1         1 RVH       0.093700
     29 H10        -61.9540    24.4180     1.9510 ha         1 RVH       0.121000
     30 H8         -63.3820    22.5610     0.0140 h1         1 RVH       0.068700
     31 H9         -62.3800    23.6180    -0.9930 h1         1 RVH       0.068700
     32 H11        -62.6770    26.3890     3.2660 ha         1 RVH       0.117000
     33 H12        -64.6330    27.7190     2.5790 ha         1 RVH       0.120000
     34 H13        -65.9230    27.0960     0.5390 ha         1 RVH       0.136000
     35 H16        -64.7530    21.0480    -1.6450 hc         1 RVH       0.054367
     36 H15        -64.4400    20.9660    -3.3840 hc         1 RVH       0.054367
     37 H14        -63.1390    21.4270    -2.2810 hc         1 RVH       0.054367
     38 H5         -62.2060    24.8680    -5.5250 hn         1 RVH       0.388000
     39 H6         -65.2120    22.7870    -5.0770 hn         1 RVH       0.352500
     40 O1         -66.1530    25.2340    -1.7870 o          1 RVH      -0.542000
@<TRIPOS>BOND
     1     1     2 ar  
     2     1     6 ar  
     3     1    24 1   
     4     2     3 ar  
     5     2    25 1   
     6     3     4 ar  
     7     3    20 1   
     8     4     5 ar  
     9     4    19 1   
    10     5     6 ar  
    11     5    26 1   
    12     6    27 1   
    13     7    16 1   
    14     7    18 1   
    15     7    22 1   
    16     7    28 1   
    17     8    12 1   
    18     8    22 1   
    19     8    40 2   
    20     9    11 ar  
    21     9    13 ar  
    22     9    29 1   
    23    10    11 1   
    24    10    22 1   
    25    10    30 1   
    26    10    31 1   
    27    11    12 ar  
    28    12    15 ar  
    29    13    14 ar  
    30    13    32 1   
    31    14    15 ar  
    32    14    33 1   
    33    15    34 1   
    34    16    35 1   
    35    16    36 1   
    36    16    37 1   
    37    17    19 2   
    38    17    20 1   
    39    17    21 1   
    40    18    21 1   
    41    18    23 2   
    42    20    38 1   
    43    21    39 1   
@<TRIPOS>SUBSTRUCTURE
     1 RVH         1 TEMP              0 ****  ****    0 ROOT
