@<TRIPOS>MOLECULE
RVH
   40    43     1     0     0
SMALL
No Charge or Current Charge


@<TRIPOS>ATOM
      1 C1         -61.8790    25.5520   -10.0130 ca         1 RVH      -0.102000
      2 C2         -61.7490    25.6110    -8.6100 ca         1 RVH      -0.108000
      3 C3         -62.6200    24.8220    -7.8490 ca         1 RVH      -0.072200
      4 C4         -63.5710    24.0140    -8.4030 ca         1 RVH       0.088400
      5 C5         -63.7200    23.9390    -9.7960 ca         1 RVH      -0.059000
      6 C6         -62.8610    24.7190   -10.6040 ca         1 RVH      -0.129000
      7 C9         -64.4650    23.0030    -2.6190 c3         1 RVH       0.058700
      8 C13        -64.8730    25.0410    -1.1990 c          1 RVH       0.579600
      9 C14        -63.2200    24.7530     2.0480 ca         1 RVH      -0.101000
     10 C10        -63.5380    23.3230    -0.1350 c5         1 RVH       0.148300
     11 C11        -63.7230    24.5460     0.7540 ca         1 RVH      -0.079300
     12 C12        -64.4870    25.5220     0.1390 ca         1 RVH      -0.155600
     13 C15        -63.5080    25.9700     2.7020 ca         1 RVH      -0.084000
     14 C16        -64.2900    26.9590     2.0630 ca         1 RVH      -0.122000
     15 C17        -64.7890    26.7410     0.7630 ca         1 RVH      -0.035000
     16 C18        -64.0090    21.5280    -2.4910 c3         1 RVH      -0.101100
     17 C7         -63.7540    23.7730    -6.2730 cc         1 RVH       0.483400
     18 C8         -63.7350    23.6900    -3.8120 c          1 RVH       0.592100
     19 N1         -64.2980    23.3430    -7.4210 nd         1 RVH      -0.628100
     20 N2         -62.7270    24.6760    -6.5020 na         1 RVH      -0.325600
     21 N3         -64.2000    23.3360    -5.0580 ns         1 RVH      -0.406400
     22 N4         -64.3300    23.7530    -1.3360 n          1 RVH      -0.413800
     23 O2         -62.8130    24.4850    -3.6610 o          1 RVH      -0.591100
     24 H1         -61.2230    26.1480   -10.6440 ha         1 RVH       0.112000
     25 H2         -61.0000    26.2450    -8.1390 ha         1 RVH       0.119000
     26 H3         -64.4760    23.2970   -10.2390 ha         1 RVH       0.127000
     27 H4         -62.9560    24.6780   -11.6870 ha         1 RVH       0.113000
     28 H7         -65.5330    22.9970    -2.8760 h1         1 RVH       0.093700
     29 H10        -62.6180    23.9910     2.5380 ha         1 RVH       0.121000
     30 H8         -63.9540    22.4200     0.3310 h1         1 RVH       0.068700
     31 H9         -62.4810    23.1560    -0.3790 h1         1 RVH       0.068700
     32 H11        -63.1270    26.1470     3.7060 ha         1 RVH       0.117000
     33 H12        -64.5060    27.8940     2.5750 ha         1 RVH       0.120000
     34 H13        -65.3910    27.4950     0.2590 ha         1 RVH       0.136000
     35 H16        -64.5560    21.0230    -1.6850 hc         1 RVH       0.054367
     36 H15        -64.2000    20.9760    -3.4190 hc         1 RVH       0.054367
     37 H14        -62.9350    21.4660    -2.2740 hc         1 RVH       0.054367
     38 H5         -62.1790    25.1270    -5.7800 hn         1 RVH       0.388000
     39 H6         -64.9620    22.6740    -5.0740 hn         1 RVH       0.352500
     40 O1         -65.5460    25.6350    -2.0300 o          1 RVH      -0.542000
@<TRIPOS>BOND
     1     1     2 ar  
     2     1     6 ar  
     3     1    24 1   
     4     2     3 ar  
     5     2    25 1   
     6     3     4 ar  
     7     3    20 1   
     8     4     5 ar  
     9     4    19 1   
    10     5     6 ar  
    11     5    26 1   
    12     6    27 1   
    13     7    16 1   
    14     7    18 1   
    15     7    22 1   
    16     7    28 1   
    17     8    12 1   
    18     8    22 1   
    19     8    40 2   
    20     9    11 ar  
    21     9    13 ar  
    22     9    29 1   
    23    10    11 1   
    24    10    22 1   
    25    10    30 1   
    26    10    31 1   
    27    11    12 ar  
    28    12    15 ar  
    29    13    14 ar  
    30    13    32 1   
    31    14    15 ar  
    32    14    33 1   
    33    15    34 1   
    34    16    35 1   
    35    16    36 1   
    36    16    37 1   
    37    17    19 2   
    38    17    20 1   
    39    17    21 1   
    40    18    21 1   
    41    18    23 2   
    42    20    38 1   
    43    21    39 1   
@<TRIPOS>SUBSTRUCTURE
     1 RVH         1 TEMP              0 ****  ****    0 ROOT
