@<TRIPOS>MOLECULE
RVI
   70    73     1     0     0
SMALL
abcg2


@<TRIPOS>ATOM
      1 C4          -5.4270     1.2810     0.4380 cp         1 RVI      -0.033000
      2 C5          -6.6540     1.5410    -0.1910 ca         1 RVI      -0.058300
      3 C6          -7.3950     2.6450     0.2270 ca         1 RVI      -0.114000
      4 C7          -4.5800     0.1260     0.0620 cp         1 RVI      -0.056000
      5 C8          -5.0960    -1.1910     0.0850 ca         1 RVI      -0.077000
      6 C10         -3.2580     0.3030    -0.2790 ca         1 RVI      -0.063000
      7 C15         -0.3000    -1.7420    -1.2430 ca         1 RVI      -0.173300
      8 C17         -7.1790     0.6920    -1.3160 c3         1 RVI      -0.049800
      9 C20          2.0130    -1.4030    -0.2760 c3         1 RVI      -0.137700
     10 C21          3.4630    -1.1730    -0.6630 c          1 RVI       0.595100
     11 C24          5.8070     1.6020     0.1930 c6         1 RVI      -0.077700
     12 C26          5.5110     4.0920    -0.1390 c6         1 RVI      -0.073400
     13 C28          7.7400     3.1890     0.5890 c6         1 RVI      -0.073400
     14 C25          5.0940     2.6980    -0.6000 c6         1 RVI      -0.070400
     15 C27          7.0230     4.2740    -0.2060 c6         1 RVI      -0.074400
     16 C29          7.3230     1.7960     0.1300 c6         1 RVI      -0.070400
     17 C23          5.4540     0.2050    -0.2990 c3         1 RVI       0.103000
     18 N22          4.0460    -0.0890    -0.1340 ns         1 RVI      -0.501900
     19 O30          4.0590    -1.9480    -1.4020 o          1 RVI      -0.610100
     20 C31          1.9300    -2.6070     0.6670 c3         1 RVI      -0.072400
     21 C32          2.6760    -2.4140     1.9830 c3         1 RVI      -0.078400
     22 C33          2.4970    -3.5960     2.9240 c3         1 RVI      -0.089100
     23 C19          1.1630    -1.5730    -1.5470 c3         1 RVI      -0.016100
     24 C14         -0.9500    -3.0270    -1.2140 ca         1 RVI       0.626900
     25 N13         -2.2150    -3.1830    -0.8980 nb         1 RVI      -0.764000
     26 N18         -0.2630    -4.1460    -1.5680 nv         1 RVI      -1.064900
     27 C16         -1.0680    -0.6570    -0.9470 ca         1 RVI      -0.034000
     28 C11         -2.4360    -0.7910    -0.6040 ca         1 RVI      -0.129000
     29 C12         -2.9620    -2.1010    -0.5900 ca         1 RVI       0.328000
     30 C9          -4.3170    -2.2720    -0.2320 ca         1 RVI      -0.107000
     31 C3          -4.9790     2.1390     1.4440 ca         1 RVI      -0.100000
     32 C2          -5.7290     3.2340     1.8470 ca         1 RVI      -0.116000
     33 C1          -6.9490     3.4840     1.2370 ca         1 RVI      -0.105000
     34 H6          -8.3400     2.8570    -0.2590 ha         1 RVI       0.110000
     35 H8          -6.1270    -1.3510     0.3760 ha         1 RVI       0.117000
     36 H10         -2.8350     1.3010    -0.3090 ha         1 RVI       0.113000
     37 H17         -7.7370    -0.1710    -0.9480 hc         1 RVI       0.044367
     38 H17A        -7.8580     1.2670    -1.9460 hc         1 RVI       0.044367
     39 H17B        -6.3790     0.3100    -1.9480 hc         1 RVI       0.044367
     40 H20          1.6330    -0.5260     0.2600 hc         1 RVI       0.051700
     41 H24          5.5040     1.6850     1.2460 hc         1 RVI       0.045700
     42 H26          5.0100     4.8490    -0.7460 hc         1 RVI       0.039200
     43 H26A         5.1720     4.2480     0.8910 hc         1 RVI       0.039200
     44 H28          8.8230     3.3010     0.4980 hc         1 RVI       0.039200
     45 H28A         7.5060     3.3030     1.6530 hc         1 RVI       0.039200
     46 H25          5.3300     2.5780    -1.6640 hc         1 RVI       0.041950
     47 H25A         4.0090     2.5930    -0.5120 hc         1 RVI       0.041950
     48 H27          7.3460     4.2290    -1.2520 hc         1 RVI       0.040700
     49 H27A         7.3030     5.2630     0.1630 hc         1 RVI       0.040700
     50 H29          7.8180     1.0350     0.7400 hc         1 RVI       0.041950
     51 H29A         7.6620     1.6360    -0.9010 hc         1 RVI       0.041950
     52 H23          5.7180     0.1130    -1.3560 h1         1 RVI       0.052200
     53 H23A         6.0540    -0.5350     0.2420 h1         1 RVI       0.052200
     54 HN22         3.5170     0.4710     0.5160 hn         1 RVI       0.311500
     55 H31          0.8790    -2.8060     0.8920 hc         1 RVI       0.050700
     56 H31A         2.3130    -3.4970     0.1580 hc         1 RVI       0.050700
     57 H32          3.7430    -2.2610     1.7970 hc         1 RVI       0.037700
     58 H32A         2.3190    -1.5010     2.4680 hc         1 RVI       0.037700
     59 H33          1.4440    -3.7580     3.1610 hc         1 RVI       0.034700
     60 H33A         2.8800    -4.5170     2.4800 hc         1 RVI       0.034700
     61 H33B         3.0270    -3.4380     3.8640 hc         1 RVI       0.034700
     62 H19          1.5560    -2.3970    -2.1440 hc         1 RVI       0.063200
     63 H19A         1.2830    -0.6800    -2.1670 hc         1 RVI       0.063200
     64 HN18         0.7400    -4.1540    -1.5230 hn         1 RVI       0.480000
     65 HN1A        -0.6970    -5.0270    -1.3470 hn         1 RVI       0.480000
     66 H16         -0.6280     0.3340    -0.9700 ha         1 RVI       0.113000
     67 H9          -4.7250    -3.2740    -0.2000 ha         1 RVI       0.129000
     68 H3          -4.0320     1.9330     1.9270 ha         1 RVI       0.113000
     69 H2          -5.3620     3.8810     2.6330 ha         1 RVI       0.112000
     70 H1          -7.5500     4.3320     1.5410 ha         1 RVI       0.112000
@<TRIPOS>BOND
     1     1     2 ar  
     2     1     4 1   
     3     1    31 ar  
     4     2     3 ar  
     5     2     8 1   
     6     3    33 ar  
     7     3    34 1   
     8     4     5 ar  
     9     4     6 ar  
    10     5    30 ar  
    11     5    35 1   
    12     6    28 ar  
    13     6    36 1   
    14     7    23 1   
    15     7    24 ar  
    16     7    27 ar  
    17     8    37 1   
    18     8    38 1   
    19     8    39 1   
    20     9    10 1   
    21     9    20 1   
    22     9    23 1   
    23     9    40 1   
    24    10    18 1   
    25    10    19 2   
    26    11    14 1   
    27    11    16 1   
    28    11    17 1   
    29    11    41 1   
    30    12    14 1   
    31    12    15 1   
    32    12    42 1   
    33    12    43 1   
    34    13    15 1   
    35    13    16 1   
    36    13    44 1   
    37    13    45 1   
    38    14    46 1   
    39    14    47 1   
    40    15    48 1   
    41    15    49 1   
    42    16    50 1   
    43    16    51 1   
    44    17    18 1   
    45    17    52 1   
    46    17    53 1   
    47    18    54 1   
    48    20    21 1   
    49    20    55 1   
    50    20    56 1   
    51    21    22 1   
    52    21    57 1   
    53    21    58 1   
    54    22    59 1   
    55    22    60 1   
    56    22    61 1   
    57    23    62 1   
    58    23    63 1   
    59    24    25 ar  
    60    24    26 1   
    61    25    29 ar  
    62    26    64 1   
    63    26    65 1   
    64    27    28 ar  
    65    27    66 1   
    66    28    29 ar  
    67    29    30 ar  
    68    30    67 1   
    69    31    32 ar  
    70    31    68 1   
    71    32    33 ar  
    72    32    69 1   
    73    33    70 1   
@<TRIPOS>SUBSTRUCTURE
     1 RVI         1 TEMP              0 ****  ****    0 ROOT
