@<TRIPOS>MOLECULE
RVI
   70    73     1     0     0
SMALL
No Charge or Current Charge


@<TRIPOS>ATOM
      1 C4          -5.3540     1.1940     0.7820 cp         1 RVI      -0.033000
      2 C5          -6.4280     1.8440     0.1070 ca         1 RVI      -0.058300
      3 C6          -7.2340     2.7680     0.8030 ca         1 RVI      -0.114000
      4 C7          -4.4690     0.1950     0.1090 cp         1 RVI      -0.056000
      5 C8          -5.0000    -0.9530    -0.5230 ca         1 RVI      -0.077000
      6 C10         -3.0650     0.3610     0.1160 ca         1 RVI      -0.063000
      7 C15         -0.0140    -1.3490    -1.1210 ca         1 RVI      -0.173300
      8 C17         -6.7270     1.5990    -1.3700 c3         1 RVI      -0.049800
      9 C20          2.1510    -1.4030     0.2710 c3         1 RVI      -0.137700
     10 C21          3.6450    -1.0210     0.2310 c          1 RVI       0.595100
     11 C24          5.4950     1.9200     0.3160 c6         1 RVI      -0.077700
     12 C26          5.4210     3.0180    -2.0070 c6         1 RVI      -0.073400
     13 C28          7.0660     3.8700    -0.2530 c6         1 RVI      -0.073400
     14 C25          5.2440     1.7030    -1.2060 c6         1 RVI      -0.070400
     15 C27          6.8160     3.6420    -1.7630 c6         1 RVI      -0.074400
     16 C29          6.8950     2.5550     0.5480 c6         1 RVI      -0.070400
     17 C23          5.3410     0.6110     1.1440 c3         1 RVI       0.103000
     18 N22          3.9990     0.0260     1.0550 ns         1 RVI      -0.501900
     19 O30          4.4570    -1.5970    -0.4800 o          1 RVI      -0.610100
     20 C31          1.9420    -2.8510     0.7980 c3         1 RVI      -0.072400
     21 C32          2.5020    -3.0860     2.2210 c3         1 RVI      -0.078400
     22 C33          2.2360    -4.5110     2.7440 c3         1 RVI      -0.089100
     23 C19          1.5070    -1.1690    -1.1220 c3         1 RVI      -0.016100
     24 C14         -0.6640    -2.4410    -1.7300 ca         1 RVI       0.626900
     25 N13         -1.9750    -2.6400    -1.7510 nb         1 RVI      -0.764000
     26 N18         -0.0570    -3.4520    -2.3580 nv         1 RVI      -1.064900
     27 C16         -0.8270    -0.3900    -0.4930 ca         1 RVI      -0.034000
     28 C11         -2.2200    -0.5790    -0.5060 ca         1 RVI      -0.129000
     29 C12         -2.7620    -1.7210    -1.1470 ca         1 RVI       0.328000
     30 C9          -4.1570    -1.8920    -1.1430 ca         1 RVI      -0.107000
     31 C3          -5.1150     1.5180     2.1410 ca         1 RVI      -0.100000
     32 C2          -5.9230     2.4420     2.8210 ca         1 RVI      -0.116000
     33 C1          -6.9850     3.0650     2.1520 ca         1 RVI      -0.105000
     34 H6          -8.0560     3.2660     0.2930 ha         1 RVI       0.110000
     35 H8          -6.0740    -1.1220    -0.5220 ha         1 RVI       0.117000
     36 H10         -2.6360     1.2340     0.6020 ha         1 RVI       0.113000
     37 H17         -7.3570     0.7120    -1.5020 hc         1 RVI       0.044367
     38 H17A        -7.2560     2.4480    -1.8190 hc         1 RVI       0.044367
     39 H17B        -5.8080     1.4540    -1.9490 hc         1 RVI       0.044367
     40 H20          1.6530    -0.7280     0.9780 hc         1 RVI       0.051700
     41 H24          4.7340     2.6160     0.6980 hc         1 RVI       0.045700
     42 H26          5.2830     2.8220    -3.0790 hc         1 RVI       0.039200
     43 H26A         4.6400     3.7340    -1.7170 hc         1 RVI       0.039200
     44 H28          8.0770     4.2710    -0.1000 hc         1 RVI       0.039200
     45 H28A         6.3690     4.6290     0.1280 hc         1 RVI       0.039200
     46 H25          5.9340     0.9410    -1.5930 hc         1 RVI       0.041950
     47 H25A         4.2290     1.3190    -1.3750 hc         1 RVI       0.041950
     48 H27          7.5940     2.9820    -2.1720 hc         1 RVI       0.040700
     49 H27A         6.8980     4.5950    -2.3030 hc         1 RVI       0.040700
     50 H29          7.0420     2.7580     1.6180 hc         1 RVI       0.041950
     51 H29A         7.6800     1.8440     0.2560 hc         1 RVI       0.041950
     52 H23          6.0880    -0.1210     0.8090 h1         1 RVI       0.052200
     53 H23A         5.5450     0.8340     2.2000 h1         1 RVI       0.052200
     54 HN22         3.2590     0.4360     1.6120 hn         1 RVI       0.311500
     55 H31          0.8690    -3.0810     0.8090 hc         1 RVI       0.050700
     56 H31A         2.4100    -3.5620     0.1060 hc         1 RVI       0.050700
     57 H32          3.5850    -2.9070     2.2290 hc         1 RVI       0.037700
     58 H32A         2.0530    -2.3630     2.9130 hc         1 RVI       0.037700
     59 H33          1.1590    -4.7130     2.7890 hc         1 RVI       0.034700
     60 H33A         2.7020    -5.2580     2.0900 hc         1 RVI       0.034700
     61 H33B         2.6490    -4.6310     3.7520 hc         1 RVI       0.034700
     62 H19          1.9890    -1.8220    -1.8600 hc         1 RVI       0.063200
     63 H19A         1.7410    -0.1470    -1.4460 hc         1 RVI       0.063200
     64 HN18         0.8960    -3.6530    -2.0870 hn         1 RVI       0.480000
     65 HN1A        -0.6540    -4.2490    -2.5340 hn         1 RVI       0.480000
     66 H16         -0.3880     0.4790    -0.0080 ha         1 RVI       0.113000
     67 H9          -4.5900    -2.7650    -1.6230 ha         1 RVI       0.129000
     68 H3          -4.2990     1.0350     2.6720 ha         1 RVI       0.113000
     69 H2          -5.7260     2.6720     3.8660 ha         1 RVI       0.112000
     70 H1          -7.6140     3.7810     2.6770 ha         1 RVI       0.112000
@<TRIPOS>BOND
     1     1     2 ar  
     2     1     4 1   
     3     1    31 ar  
     4     2     3 ar  
     5     2     8 1   
     6     3    33 ar  
     7     3    34 1   
     8     4     5 ar  
     9     4     6 ar  
    10     5    30 ar  
    11     5    35 1   
    12     6    28 ar  
    13     6    36 1   
    14     7    23 1   
    15     7    24 ar  
    16     7    27 ar  
    17     8    37 1   
    18     8    38 1   
    19     8    39 1   
    20     9    10 1   
    21     9    20 1   
    22     9    23 1   
    23     9    40 1   
    24    10    18 1   
    25    10    19 2   
    26    11    14 1   
    27    11    16 1   
    28    11    17 1   
    29    11    41 1   
    30    12    14 1   
    31    12    15 1   
    32    12    42 1   
    33    12    43 1   
    34    13    15 1   
    35    13    16 1   
    36    13    44 1   
    37    13    45 1   
    38    14    46 1   
    39    14    47 1   
    40    15    48 1   
    41    15    49 1   
    42    16    50 1   
    43    16    51 1   
    44    17    18 1   
    45    17    52 1   
    46    17    53 1   
    47    18    54 1   
    48    20    21 1   
    49    20    55 1   
    50    20    56 1   
    51    21    22 1   
    52    21    57 1   
    53    21    58 1   
    54    22    59 1   
    55    22    60 1   
    56    22    61 1   
    57    23    62 1   
    58    23    63 1   
    59    24    25 ar  
    60    24    26 1   
    61    25    29 ar  
    62    26    64 1   
    63    26    65 1   
    64    27    28 ar  
    65    27    66 1   
    66    28    29 ar  
    67    29    30 ar  
    68    30    67 1   
    69    31    32 ar  
    70    31    68 1   
    71    32    33 ar  
    72    32    69 1   
    73    33    70 1   
@<TRIPOS>SUBSTRUCTURE
     1 RVI         1 TEMP              0 ****  ****    0 ROOT
