@<TRIPOS>MOLECULE
RVJ
   18    17     1     0     0
SMALL
No Charge or Current Charge


@<TRIPOS>ATOM
      1 N           -2.4150    -2.4060    -0.1070 n8         1 RVJ      -0.887800
      2 CA          -1.1660    -1.6100     0.2300 c3         1 RVJ      -0.006500
      3 CB          -1.2100    -1.0980     1.7020 c3         1 RVJ       0.145800
      4 NG          -0.5830     0.2410     1.8750 n7         1 RVJ      -0.595000
      5 ND           0.8340     0.2710     1.6710 n7         1 RVJ      -0.378800
      6 NE           1.5710     0.1630     2.8970 n8         1 RVJ      -0.674600
      7 C            0.2430    -2.2980    -0.0450 c          1 RVJ       0.933600
      8 O            1.1590    -1.6010    -0.4730 o          1 RVJ      -0.836300
      9 H1          -3.2390    -1.8000    -0.0320 hn         1 RVJ       0.328300
     10 H2          -2.3870    -2.6820    -1.0950 hn         1 RVJ       0.328300
     11 HA          -1.2220    -0.7330    -0.4300 h1         1 RVJ      -0.007300
     12 HB3         -2.2610    -1.0230     2.0140 h1         1 RVJ       0.045200
     13 HB2         -0.7400    -1.8420     2.3610 h1         1 RVJ       0.045200
     14 H3          -1.0780     0.9630     1.3320 hn         1 RVJ       0.350800
     15 H4           1.1970    -0.2960     0.8640 hn         1 RVJ       0.388800
     16 H5           1.8820    -0.7980     3.0850 hn         1 RVJ       0.327300
     17 H6           2.3910     0.7850     2.9140 hn         1 RVJ       0.327300
     18 OXT          0.3530    -3.5160     0.0770 o          1 RVJ      -0.836300
@<TRIPOS>BOND
     1     1     2 1   
     2     1     9 1   
     3     1    10 1   
     4     2     3 1   
     5     2     7 1   
     6     2    11 1   
     7     3     4 1   
     8     3    12 1   
     9     3    13 1   
    10     4     5 1   
    11     4    14 1   
    12     5     6 1   
    13     5    15 1   
    14     6    16 1   
    15     6    17 1   
    16     7     8 1   
    17     7    18 1   
@<TRIPOS>SUBSTRUCTURE
     1 RVJ         1 TEMP              0 ****  ****    0 ROOT
