@<TRIPOS>MOLECULE
RVJ
   18    17     1     0     0
SMALL
bcc


@<TRIPOS>ATOM
      1 N           -2.3260    -2.4080     0.0610 n8         1 RVJ      -0.887800
      2 CA          -1.1350    -1.5880     0.2260 c3         1 RVJ      -0.006500
      3 CB          -1.1330    -1.0220     1.6650 c3         1 RVJ       0.145800
      4 NG          -0.5820     0.3050     1.8890 n7         1 RVJ      -0.595000
      5 ND           0.8030     0.4610     1.6910 n7         1 RVJ      -0.378800
      6 NE           1.4980     0.2040     2.8960 n8         1 RVJ      -0.674600
      7 C            0.1290    -2.4070    -0.1400 c          1 RVJ       0.933600
      8 O            1.2320    -1.9470     0.2380 o          1 RVJ      -0.836300
      9 H1          -3.1350    -1.8150    -0.0730 hn         1 RVJ       0.328300
     10 H2          -2.2240    -2.9670    -0.7760 hn         1 RVJ       0.328300
     11 HA          -1.1310    -0.7180    -0.4580 h1         1 RVJ      -0.007300
     12 HB3         -2.1780    -0.9650     1.9830 h1         1 RVJ       0.045200
     13 HB2         -0.6530    -1.7240     2.3530 h1         1 RVJ       0.045200
     14 H3          -1.0480     0.9690     1.2830 hn         1 RVJ       0.350800
     15 H4           1.1020    -0.2270     0.9990 hn         1 RVJ       0.388800
     16 H5           1.8110    -0.7620     2.9270 hn         1 RVJ       0.327300
     17 H6           2.3350     0.7720     2.8880 hn         1 RVJ       0.327300
     18 OXT         -0.0350    -3.4410    -0.8110 o          1 RVJ      -0.836300
@<TRIPOS>BOND
     1     1     2 1   
     2     1     9 1   
     3     1    10 1   
     4     2     3 1   
     5     2     7 1   
     6     2    11 1   
     7     3     4 1   
     8     3    12 1   
     9     3    13 1   
    10     4     5 1   
    11     4    14 1   
    12     5     6 1   
    13     5    15 1   
    14     6    16 1   
    15     6    17 1   
    16     7     8 1   
    17     7    18 1   
@<TRIPOS>SUBSTRUCTURE
     1 RVJ         1 TEMP              0 ****  ****    0 ROOT
