@<TRIPOS>MOLECULE
RVK
   60    63     1     0     0
SMALL
No Charge or Current Charge


@<TRIPOS>ATOM
      1 C1           8.4180    -0.7660    11.2700 c3         1 RVK       0.161900
      2 C2          14.9700    -6.9100     2.8560 ca         1 RVK       0.145900
      3 C4          15.2460    -6.6230     5.1100 ca         1 RVK       0.107500
      4 C5          16.5740    -6.9480     4.9880 ca         1 RVK      -0.083600
      5 C6          17.0670    -7.2630     3.7030 ca         1 RVK       0.433900
      6 C7          13.7820    -6.0260     7.0800 c5         1 RVK       0.312300
      7 C1D         10.8270    -0.3330    10.9230 c5         1 RVK       0.388300
      8 C9          13.5150    -6.6180     8.5220 c5         1 RVK       0.121300
      9 C2D         11.2590     0.7770    11.9570 c5         1 RVK       0.084300
     10 C3          13.7040    -5.3590     9.4160 c5         1 RVK       0.124300
     11 C3D         11.2940     2.0190    11.0150 c5         1 RVK       0.118300
     12 C10         13.1190    -4.2650     8.4710 c5         1 RVK       0.106300
     13 C4D         11.9570     1.3760     9.7400 c5         1 RVK       0.148300
     14 C11         13.3440    -2.7630     8.8350 c3         1 RVK       0.217600
     15 C5D         13.4970     1.5910     9.5980 c3         1 RVK       0.221600
     16 C8          16.2800    -6.5460     7.0850 cc         1 RVK       0.466700
     17 N1          16.2640    -7.2420     2.6270 nb         1 RVK      -0.323000
     18 N3          14.4120    -6.5980     4.0510 nb         1 RVK      -0.210000
     19 N6          18.3650    -7.5940     3.4710 nv         1 RVK      -1.083900
     20 N7          17.2460    -6.9050     6.2140 nd         1 RVK      -0.578100
     21 N9          15.0500    -6.3700     6.4380 na         1 RVK      -0.301300
     22 O1A         13.7240    -3.3630    11.7310 o          1 RVK      -0.857000
     23 O1B         15.9280     0.4240    12.3660 o          1 RVK      -0.846500
     24 O1D          9.4490    -0.1290    10.4930 os         1 RVK      -0.495000
     25 O2A         16.0450    -2.6020    11.6290 o          1 RVK      -0.857000
     26 O2B         16.0960     0.0680     9.9090 o          1 RVK      -0.846500
     27 O2D         10.4030     0.9750    13.1030 oh         1 RVK      -0.728000
     28 O3A         14.1030    -0.9360    11.2400 os         1 RVK      -0.742800
     29 O3D          9.9600     2.4920    10.7510 oh         1 RVK      -0.744000
     30 O4          13.7210    -4.5830     7.2000 os         1 RVK      -0.451000
     31 O4D         11.6420    -0.0460     9.7700 os         1 RVK      -0.453000
     32 O5          14.6080    -2.5540     9.4950 os         1 RVK      -0.608400
     33 O5D         14.1690     1.4150    10.8600 os         1 RVK      -0.617400
     34 PA          14.6680    -2.3940    11.0970 p5         1 RVK       1.506800
     35 PB          15.1910     0.1880    11.0890 p5         1 RVK       1.484800
     36 H1           7.4350    -0.5740    10.8230 h1         1 RVK       0.026033
     37 H2           8.5710    -1.8520    11.2980 h1         1 RVK       0.026033
     38 H3           8.3990    -0.3920    12.3000 h1         1 RVK       0.026033
     39 H4          14.3100    -6.8920     1.9910 h5         1 RVK       0.027100
     40 H5          12.9950    -6.3740     6.3990 h2         1 RVK       0.095700
     41 H6          10.9960    -1.3560    11.2880 h2         1 RVK       0.126700
     42 H7          14.2350    -7.4060     8.7810 h1         1 RVK       0.061700
     43 H8          12.2750     0.5430    12.3020 h1         1 RVK       0.115700
     44 H9          14.7730    -5.1800     9.6030 h1         1 RVK       0.071700
     45 H10         11.9150     2.8260    11.4280 h1         1 RVK       0.065700
     46 H11         12.0350    -4.4040     8.3600 h1         1 RVK       0.053700
     47 H12         11.5010     1.7930     8.8330 h1         1 RVK       0.048700
     48 H13         13.2810    -2.1580     7.9210 h1         1 RVK       0.057200
     49 H14         12.5140    -2.4500     9.4820 h1         1 RVK       0.057200
     50 H15         13.8790     0.9040     8.8310 h1         1 RVK       0.035200
     51 H16         13.6680     2.6130     9.2350 h1         1 RVK       0.035200
     52 H17         16.4050    -6.4000     8.1530 h5         1 RVK       0.131800
     53 H18         18.7120    -7.5180     2.5180 hn         1 RVK       0.500000
     54 H19         19.0300    -7.4040     4.2170 hn         1 RVK       0.500000
     55 H23          9.7890     1.7020    12.8400 ho         1 RVK       0.494000
     56 H25          9.4750     1.6800    10.4430 ho         1 RVK       0.510000
     57 O2          12.1760    -7.0840     8.7270 oh         1 RVK      -0.735000
     58 H22         11.9800    -6.6920     9.6220 ho         1 RVK       0.527000
     59 O3          12.9790    -5.4930    10.6530 oh         1 RVK      -0.790000
     60 H24         13.2300    -4.6550    11.1930 ho         1 RVK       0.608000
@<TRIPOS>BOND
     1     1    24 1   
     2     1    36 1   
     3     1    37 1   
     4     1    38 1   
     5     2    17 ar  
     6     2    18 ar  
     7     2    39 1   
     8     3     4 ar  
     9     3    18 ar  
    10     3    21 1   
    11     4     5 ar  
    12     4    20 1   
    13     5    17 ar  
    14     5    19 1   
    15     6     8 1   
    16     6    21 1   
    17     6    30 1   
    18     6    40 1   
    19     7     9 1   
    20     7    24 1   
    21     7    31 1   
    22     7    41 1   
    23     8    10 1   
    24     8    42 1   
    25     8    57 1   
    26     9    11 1   
    27     9    27 1   
    28     9    43 1   
    29    10    12 1   
    30    10    44 1   
    31    10    59 1   
    32    11    13 1   
    33    11    29 1   
    34    11    45 1   
    35    12    14 1   
    36    12    30 1   
    37    12    46 1   
    38    13    15 1   
    39    13    31 1   
    40    13    47 1   
    41    14    32 1   
    42    14    48 1   
    43    14    49 1   
    44    15    33 1   
    45    15    50 1   
    46    15    51 1   
    47    16    20 2   
    48    16    21 1   
    49    16    52 1   
    50    19    53 1   
    51    19    54 1   
    52    22    34 1   
    53    23    35 1   
    54    25    34 1   
    55    26    35 1   
    56    27    55 1   
    57    28    34 1   
    58    28    35 1   
    59    29    56 1   
    60    32    34 1   
    61    33    35 1   
    62    57    58 1   
    63    59    60 1   
@<TRIPOS>SUBSTRUCTURE
     1 RVK         1 TEMP              0 ****  ****    0 ROOT
