@<TRIPOS>MOLECULE
RVK
   60    63     1     0     0
SMALL
abcg2


@<TRIPOS>ATOM
      1 C1           9.5640    -2.2290    11.3020 c3         1 RVK       0.161900
      2 C2          15.3530    -8.7520     4.4150 ca         1 RVK       0.145900
      3 C4          15.2460    -6.8620     5.5580 ca         1 RVK       0.107500
      4 C5          16.6250    -6.8430     5.7600 ca         1 RVK      -0.083600
      5 C6          17.3580    -7.9110     5.2070 ca         1 RVK       0.433900
      6 C7          13.3690    -5.3310     6.2710 c5         1 RVK       0.312300
      7 C1D         11.2290    -0.5650    10.9560 c5         1 RVK       0.388300
      8 C9          12.6810    -5.8770     7.5290 c5         1 RVK       0.121300
      9 C2D         11.5780     0.3040    12.1750 c5         1 RVK       0.084300
     10 C3          12.8980    -4.7260     8.5010 c5         1 RVK       0.124300
     11 C3D         11.3540     1.7380    11.6680 c5         1 RVK       0.118300
     12 C10         12.7050    -3.5100     7.5930 c5         1 RVK       0.106300
     13 C4D         11.7080     1.6240    10.1890 c5         1 RVK       0.148300
     14 C11         13.3110    -2.2140     8.0820 c3         1 RVK       0.217600
     15 C5D         13.0990     2.1110     9.8320 c3         1 RVK       0.221600
     16 C8          15.8650    -5.0970     6.7260 cc         1 RVK       0.466700
     17 N1          16.6810    -8.8600     4.5320 nb         1 RVK      -0.323000
     18 N3          14.5570    -7.7980     4.8930 nb         1 RVK      -0.210000
     19 N6          18.6900    -8.0180     5.3270 nv         1 RVK      -1.083900
     20 N7          16.9920    -5.7280     6.4920 nd         1 RVK      -0.578100
     21 N9          14.7710    -5.7330     6.1810 na         1 RVK      -0.301300
     22 O1A         13.6290    -3.0930    10.9680 o          1 RVK      -0.857000
     23 O1B         16.2940     0.7440    11.4420 o          1 RVK      -0.846500
     24 O1D          9.8550    -0.8980    10.8870 os         1 RVK      -0.495000
     25 O2A         16.1610    -2.6670    10.6020 o          1 RVK      -0.857000
     26 O2B         15.6070     0.7110     8.9370 o          1 RVK      -0.846500
     27 O2D         10.7670    -0.0200    13.2940 oh         1 RVK      -0.728000
     28 O3A         14.4170    -0.7800    10.6410 os         1 RVK      -0.742800
     29 O3D          9.9890     2.1190    11.8190 oh         1 RVK      -0.744000
     30 O4          13.3090    -3.9190     6.3430 os         1 RVK      -0.451000
     31 O4D         11.5630     0.2250     9.8450 os         1 RVK      -0.453000
     32 O5          14.5930    -2.4040     8.6930 os         1 RVK      -0.608400
     33 O5D         14.0910     1.6690    10.7640 os         1 RVK      -0.617400
     34 PA          14.7430    -2.3270    10.3080 p5         1 RVK       1.506800
     35 PB          15.2520     0.6060    10.3830 p5         1 RVK       1.484800
     36 H1           8.5060    -2.3970    11.1050 h1         1 RVK       0.026033
     37 H2          10.1570    -2.9530    10.7340 h1         1 RVK       0.026033
     38 H3           9.7560    -2.3680    12.3690 h1         1 RVK       0.026033
     39 H4          14.8660    -9.5480     3.8600 h5         1 RVK       0.027100
     40 H5          12.8750    -5.6940     5.3700 h2         1 RVK       0.095700
     41 H6          11.8230    -1.4790    10.9220 h2         1 RVK       0.126700
     42 H7          13.1410    -6.8100     7.8640 h1         1 RVK       0.061700
     43 H8          12.6340     0.1650    12.4000 h1         1 RVK       0.115700
     44 H9          13.9390    -4.7560     8.8300 h1         1 RVK       0.071700
     45 H10         12.0000     2.4530    12.1820 h1         1 RVK       0.065700
     46 H11         11.6360    -3.3430     7.4270 h1         1 RVK       0.053700
     47 H12         10.9940     2.1960     9.5910 h1         1 RVK       0.048700
     48 H13         13.4480    -1.5350     7.2390 h1         1 RVK       0.057200
     49 H14         12.6210    -1.7420     8.7790 h1         1 RVK       0.057200
     50 H15         13.3550     1.7840     8.8240 h1         1 RVK       0.035200
     51 H16         13.0980     3.2030     9.8550 h1         1 RVK       0.035200
     52 H17         15.7630    -4.1710     7.2700 h5         1 RVK       0.131800
     53 H18         19.1700    -8.8020     4.9180 hn         1 RVK       0.500000
     54 H19         19.2190    -7.3240     5.8270 hn         1 RVK       0.500000
     55 H23         11.2550     0.1980    14.0970 ho         1 RVK       0.494000
     56 H25          9.6580     1.6300    12.5890 ho         1 RVK       0.510000
     57 O2          11.3050    -6.0660     7.2300 oh         1 RVK      -0.735000
     58 H22         10.8200    -6.0290     8.0660 ho         1 RVK       0.527000
     59 O3          12.0370    -4.7640     9.6110 oh         1 RVK      -0.790000
     60 H24         12.4740    -4.1710    10.2720 ho         1 RVK       0.608000
@<TRIPOS>BOND
     1     1    24 1   
     2     1    36 1   
     3     1    37 1   
     4     1    38 1   
     5     2    17 ar  
     6     2    18 ar  
     7     2    39 1   
     8     3     4 ar  
     9     3    18 ar  
    10     3    21 1   
    11     4     5 ar  
    12     4    20 1   
    13     5    17 ar  
    14     5    19 1   
    15     6     8 1   
    16     6    21 1   
    17     6    30 1   
    18     6    40 1   
    19     7     9 1   
    20     7    24 1   
    21     7    31 1   
    22     7    41 1   
    23     8    10 1   
    24     8    42 1   
    25     8    57 1   
    26     9    11 1   
    27     9    27 1   
    28     9    43 1   
    29    10    12 1   
    30    10    44 1   
    31    10    59 1   
    32    11    13 1   
    33    11    29 1   
    34    11    45 1   
    35    12    14 1   
    36    12    30 1   
    37    12    46 1   
    38    13    15 1   
    39    13    31 1   
    40    13    47 1   
    41    14    32 1   
    42    14    48 1   
    43    14    49 1   
    44    15    33 1   
    45    15    50 1   
    46    15    51 1   
    47    16    20 2   
    48    16    21 1   
    49    16    52 1   
    50    19    53 1   
    51    19    54 1   
    52    22    34 1   
    53    23    35 1   
    54    25    34 1   
    55    26    35 1   
    56    27    55 1   
    57    28    34 1   
    58    28    35 1   
    59    29    56 1   
    60    32    34 1   
    61    33    35 1   
    62    57    58 1   
    63    59    60 1   
@<TRIPOS>SUBSTRUCTURE
     1 RVK         1 TEMP              0 ****  ****    0 ROOT
