@<TRIPOS>MOLECULE
RVL
   53    57     1     0     0
SMALL
No Charge or Current Charge


@<TRIPOS>ATOM
      1 N1         -21.6500     6.9450    29.9280 n          1 RVL      -0.398800
      2 N3         -16.6600     4.1440    26.8930 nb         1 RVL      -0.653000
      3 C4         -22.6150     9.3310    29.5420 cx         1 RVL      -0.095400
      4 C5         -22.5110     6.3400    28.8800 c6         1 RVL       0.118000
      5 C6         -22.2610     4.8240    28.6700 c6         1 RVL      -0.117400
      6 C7         -20.9800     4.4570    27.8860 c          1 RVL       0.604100
      7 C8         -18.7430     5.3940    27.1180 ca         1 RVL      -0.102000
      8 C10        -16.1450     5.1830    26.1980 ca         1 RVL       0.364900
      9 C13        -17.0190     8.5700    24.9120 ca         1 RVL      -0.106000
     10 C15        -18.9380     7.6340    26.0840 ca         1 RVL      -0.112000
     11 C17        -22.1960     4.1010    30.0160 ca         1 RVL      -0.038300
     12 C20        -21.9390     2.7160    32.4540 ca         1 RVL      -0.105000
     13 C21        -21.5170     4.0530    32.3560 ca         1 RVL      -0.044000
     14 C22        -21.6520     4.7580    31.1390 ca         1 RVL      -0.125600
     15 C23        -21.2180     6.1990    31.0500 c          1 RVL       0.579600
     16 C2         -21.4370     8.4070    29.8250 cx         1 RVL      -0.058600
     17 C3         -21.9970     9.3090    30.9130 cx         1 RVL      -0.095400
     18 C1         -20.0740     8.8480    29.2810 c          1 RVL       0.623100
     19 O          -19.9380     9.6380    28.3560 o          1 RVL      -0.629100
     20 N          -18.9990     8.2840    29.9230 ns         1 RVL      -0.487900
     21 C          -17.5990     8.5210    29.5700 c3         1 RVL       0.095300
     22 C19        -22.4900     2.0730    31.3370 ca         1 RVL       0.143000
     23 Cl         -23.0130     0.3980    31.4570 cl         1 RVL      -0.198000
     24 C18        -22.6150     2.7600    30.1200 ca         1 RVL      -0.101000
     25 O1         -20.8160     3.3210    27.4560 o          1 RVL      -0.573100
     26 N2         -20.0580     5.4690    27.6590 ns         1 RVL      -0.158000
     27 C16        -18.1980     6.4710    26.3830 ca         1 RVL      -0.016000
     28 C14        -18.3470     8.6810    25.3550 ca         1 RVL      -0.072000
     29 C12        -16.2800     7.4080    25.1900 ca         1 RVL      -0.079000
     30 C11        -16.8690     6.3580    25.9210 ca         1 RVL      -0.098000
     31 C9         -17.9330     4.2550    27.3390 ca         1 RVL       0.348900
     32 H1         -22.4510    10.2150    28.9310 hc         1 RVL       0.087950
     33 H2         -23.6070     8.8970    29.4400 hc         1 RVL       0.087950
     34 H3         -22.3890     6.8780    27.9280 h1         1 RVL       0.055700
     35 H4         -23.5570     6.4740    29.1890 h1         1 RVL       0.055700
     36 H5         -23.0960     4.3970    28.0990 hc         1 RVL       0.079700
     37 H6         -15.1180     5.0670    25.8530 h4         1 RVL       0.024100
     38 H7         -16.5650     9.3820    24.3480 ha         1 RVL       0.123000
     39 H8         -19.9700     7.7400    26.4060 ha         1 RVL       0.109000
     40 H9         -21.8380     2.1800    33.3940 ha         1 RVL       0.138000
     41 H10        -21.0960     4.5430    33.2320 ha         1 RVL       0.145000
     42 H11        -21.4080    10.1720    31.2160 hc         1 RVL       0.087950
     43 H12        -22.5670     8.8470    31.7150 hc         1 RVL       0.087950
     44 H13        -19.2190     7.6720    30.7030 hn         1 RVL       0.339500
     45 H14        -16.9520     7.8950    30.1980 h1         1 RVL       0.042033
     46 H15        -17.4340     8.2670    28.5150 h1         1 RVL       0.042033
     47 H16        -17.3520     9.5770    29.7340 h1         1 RVL       0.042033
     48 H17        -23.0240     2.2430    29.2560 ha         1 RVL       0.131000
     49 H18        -20.3300     6.3850    27.9910 hn         1 RVL       0.156000
     50 H19        -18.9210     9.5780    25.1350 ha         1 RVL       0.122000
     51 H20        -15.2540     7.3250    24.8360 ha         1 RVL       0.121000
     52 H21        -18.2990     3.4100    27.9200 h4         1 RVL       0.033100
     53 O2         -20.5050     6.7070    31.9060 o          1 RVL      -0.527000
@<TRIPOS>BOND
     1     1     4 1   
     2     1    15 1   
     3     1    16 1   
     4     2     8 ar  
     5     2    31 ar  
     6     3    16 1   
     7     3    17 1   
     8     3    32 1   
     9     3    33 1   
    10     4     5 1   
    11     4    34 1   
    12     4    35 1   
    13     5     6 1   
    14     5    11 1   
    15     5    36 1   
    16     6    25 2   
    17     6    26 1   
    18     7    26 1   
    19     7    27 ar  
    20     7    31 ar  
    21     8    30 ar  
    22     8    37 1   
    23     9    28 ar  
    24     9    29 ar  
    25     9    38 1   
    26    10    27 ar  
    27    10    28 ar  
    28    10    39 1   
    29    11    14 ar  
    30    11    24 ar  
    31    12    13 ar  
    32    12    22 ar  
    33    12    40 1   
    34    13    14 ar  
    35    13    41 1   
    36    14    15 1   
    37    15    53 2   
    38    16    17 1   
    39    16    18 1   
    40    17    42 1   
    41    17    43 1   
    42    18    19 2   
    43    18    20 1   
    44    20    21 1   
    45    20    44 1   
    46    21    45 1   
    47    21    46 1   
    48    21    47 1   
    49    22    23 1   
    50    22    24 ar  
    51    24    48 1   
    52    26    49 1   
    53    27    30 ar  
    54    28    50 1   
    55    29    30 ar  
    56    29    51 1   
    57    31    52 1   
@<TRIPOS>SUBSTRUCTURE
     1 RVL         1 TEMP              0 ****  ****    0 ROOT
