@<TRIPOS>MOLECULE
RVL
   53    57     1     0     0
SMALL
abcg2


@<TRIPOS>ATOM
      1 N1         -21.5920     6.9660    30.0530 n          1 RVL      -0.398800
      2 N3         -16.4710     4.3280    26.3870 nb         1 RVL      -0.653000
      3 C4         -22.2530     9.2670    29.2540 cx         1 RVL      -0.095400
      4 C5         -22.2400     6.2810    28.9290 c6         1 RVL       0.118000
      5 C6         -21.7940     4.8180    28.8540 c6         1 RVL      -0.117400
      6 C7         -20.3000     4.7670    28.5160 c          1 RVL       0.604100
      7 C8         -18.6980     5.1640    26.7250 ca         1 RVL      -0.102000
      8 C10        -16.1140     5.5000    25.9130 ca         1 RVL       0.364900
      9 C13        -17.4300     8.9160    25.2560 ca         1 RVL      -0.106000
     10 C15        -19.2160     7.5480    26.1550 ca         1 RVL      -0.112000
     11 C17        -22.0810     4.1690    30.1770 ca         1 RVL      -0.038300
     12 C20        -22.5660     3.0350    32.6850 ca         1 RVL      -0.105000
     13 C21        -22.1690     4.3590    32.5830 ca         1 RVL      -0.044000
     14 C22        -21.9310     4.9360    31.3370 ca         1 RVL      -0.125600
     15 C23        -21.4700     6.3530    31.2680 c          1 RVL       0.579600
     16 C2         -21.2370     8.3540    29.9100 cx         1 RVL      -0.058600
     17 C3         -22.0070     9.3750    30.7190 cx         1 RVL      -0.095400
     18 C1         -19.7890     8.6840    29.6380 c          1 RVL       0.623100
     19 O          -19.4350     9.8560    29.4730 o          1 RVL      -0.629100
     20 N          -18.9310     7.6580    29.5810 ns         1 RVL      -0.487900
     21 C          -17.5200     7.8460    29.3020 c3         1 RVL       0.095300
     22 C19        -22.7060     2.2880    31.5210 ca         1 RVL       0.143000
     23 CL         -23.2020     0.6170    31.6340 cl         1 RVL      -0.198000
     24 C18        -22.4630     2.8370    30.2700 ca         1 RVL      -0.101000
     25 O1         -19.4380     4.6680    29.3830 o          1 RVL      -0.573100
     26 N2         -20.0150     4.9320    27.2030 ns         1 RVL      -0.158000
     27 C16        -18.3380     6.4420    26.2240 ca         1 RVL      -0.016000
     28 C14        -18.7660     8.7550    25.6830 ca         1 RVL      -0.072000
     29 C12        -16.5570     7.8610    25.3120 ca         1 RVL      -0.079000
     30 C11        -16.9900     6.6060    25.8000 ca         1 RVL      -0.098000
     31 C9         -17.7570     4.1690    26.7850 ca         1 RVL       0.348900
     32 H1         -21.8490    10.0300    28.6060 hc         1 RVL       0.087950
     33 H2         -23.1750     8.8090    28.9240 hc         1 RVL       0.087950
     34 H3         -21.9790     6.8130    28.0190 h1         1 RVL       0.055700
     35 H4         -23.3270     6.3120    29.0380 h1         1 RVL       0.055700
     36 H5         -22.3580     4.3300    28.0590 hc         1 RVL       0.079700
     37 H6         -15.0820     5.6160    25.5960 h4         1 RVL       0.024100
     38 H7         -17.0990     9.8790    24.8890 ha         1 RVL       0.123000
     39 H8         -20.2380     7.4440    26.4890 ha         1 RVL       0.109000
     40 H9         -22.7620     2.5870    33.6490 ha         1 RVL       0.138000
     41 H10        -22.0440     4.9580    33.4750 ha         1 RVL       0.145000
     42 H11        -21.4420    10.2190    31.0870 hc         1 RVL       0.087950
     43 H12        -22.7520     8.9740    31.3910 hc         1 RVL       0.087950
     44 H13        -19.2570     6.7150    29.7290 hn         1 RVL       0.339500
     45 H14        -17.0730     6.8700    29.1350 h1         1 RVL       0.042033
     46 H15        -17.3870     8.4550    28.4080 h1         1 RVL       0.042033
     47 H16        -17.0120     8.3370    30.1340 h1         1 RVL       0.042033
     48 H17        -22.5750     2.2370    29.3770 ha         1 RVL       0.131000
     49 H18        -20.7840     5.0750    26.5620 hn         1 RVL       0.156000
     50 H19        -19.4420     9.6000    25.6450 ha         1 RVL       0.122000
     51 H20        -15.5270     7.9710    24.9940 ha         1 RVL       0.121000
     52 H21        -18.0300     3.1950    27.1730 h4         1 RVL       0.033100
     53 O2         -20.9910     6.9230    32.2460 o          1 RVL      -0.527000
@<TRIPOS>BOND
     1     1     4 1   
     2     1    15 1   
     3     1    16 1   
     4     2     8 ar  
     5     2    31 ar  
     6     3    16 1   
     7     3    17 1   
     8     3    32 1   
     9     3    33 1   
    10     4     5 1   
    11     4    34 1   
    12     4    35 1   
    13     5     6 1   
    14     5    11 1   
    15     5    36 1   
    16     6    25 2   
    17     6    26 1   
    18     7    26 1   
    19     7    27 ar  
    20     7    31 ar  
    21     8    30 ar  
    22     8    37 1   
    23     9    28 ar  
    24     9    29 ar  
    25     9    38 1   
    26    10    27 ar  
    27    10    28 ar  
    28    10    39 1   
    29    11    14 ar  
    30    11    24 ar  
    31    12    13 ar  
    32    12    22 ar  
    33    12    40 1   
    34    13    14 ar  
    35    13    41 1   
    36    14    15 1   
    37    15    53 2   
    38    16    17 1   
    39    16    18 1   
    40    17    42 1   
    41    17    43 1   
    42    18    19 2   
    43    18    20 1   
    44    20    21 1   
    45    20    44 1   
    46    21    45 1   
    47    21    46 1   
    48    21    47 1   
    49    22    23 1   
    50    22    24 ar  
    51    24    48 1   
    52    26    49 1   
    53    27    30 ar  
    54    28    50 1   
    55    29    30 ar  
    56    29    51 1   
    57    31    52 1   
@<TRIPOS>SUBSTRUCTURE
     1 RVL         1 TEMP              0 ****  ****    0 ROOT
