@<TRIPOS>MOLECULE
RVM
   28    28     1     0     0
SMALL
abcg2


@<TRIPOS>ATOM
      1 C4          31.7090     7.3580    38.6480 c6         1 RVM      -0.120400
      2 C5          32.2050     6.8880    40.0080 c6         1 RVM       0.172300
      3 O5          31.1340     6.8640    40.9520 os         1 RVM      -0.446000
      4 C6          33.2750     7.7970    40.5750 c3         1 RVM      -0.087100
      5 C3          30.5540     6.4920    38.1690 c6         1 RVM       0.163300
      6 O3          30.0400     6.9900    36.9530 os         1 RVM      -0.459000
      7 C3O         29.9300     6.0350    35.9260 c3         1 RVM       0.149900
      8 C2          29.4670     6.4970    39.2330 c6         1 RVM       0.077300
      9 O2          28.4370     5.5930    38.9010 os         1 RVM      -0.472000
     10 C2O         27.1730     6.1790    38.6940 c3         1 RVM       0.151900
     11 C1          30.0320     6.0980    40.6050 c6         1 RVM       0.395300
     12 H41         32.5320     7.3160    37.9300 hc         1 RVM       0.060700
     13 H42         31.3860     8.4030    38.7150 hc         1 RVM       0.060700
     14 H5          32.6210     5.8780    39.8990 h1         1 RVM       0.052700
     15 H61         33.6360     7.4340    41.5380 hc         1 RVM       0.044700
     16 H62         34.1260     7.8390    39.8950 hc         1 RVM       0.044700
     17 H63         32.9000     8.8130    40.7060 hc         1 RVM       0.044700
     18 H3          30.9190     5.4640    38.0340 h1         1 RVM       0.056700
     19 H8          29.4970     6.5320    35.0580 h1         1 RVM       0.030700
     20 H9          30.9050     5.6290    35.6340 h1         1 RVM       0.030700
     21 H10         29.2820     5.1970    36.2010 h1         1 RVM       0.030700
     22 H2          29.0780     7.5210    39.3210 h1         1 RVM       0.066700
     23 H12         26.4710     5.3760    38.4710 h1         1 RVM       0.034033
     24 H13         26.8130     6.7120    39.5800 h1         1 RVM       0.034033
     25 H14         27.1780     6.8760    37.8510 h1         1 RVM       0.034033
     26 H1          29.2740     6.3040    41.3730 h2         1 RVM       0.067700
     27 O1          30.4020     4.7450    40.6310 oh         1 RVM      -0.749000
     28 HO1         29.6730     4.2270    40.2700 ho         1 RVM       0.532000
@<TRIPOS>BOND
     1     1     2 1   
     2     1     5 1   
     3     1    12 1   
     4     1    13 1   
     5     2     3 1   
     6     2     4 1   
     7     2    14 1   
     8     3    11 1   
     9     4    15 1   
    10     4    16 1   
    11     4    17 1   
    12     5     6 1   
    13     5     8 1   
    14     5    18 1   
    15     6     7 1   
    16     7    19 1   
    17     7    20 1   
    18     7    21 1   
    19     8     9 1   
    20     8    11 1   
    21     8    22 1   
    22     9    10 1   
    23    10    23 1   
    24    10    24 1   
    25    10    25 1   
    26    11    26 1   
    27    11    27 1   
    28    27    28 1   
@<TRIPOS>SUBSTRUCTURE
     1 RVM         1 TEMP              0 ****  ****    0 ROOT
