@<TRIPOS>MOLECULE
RVM
   28    28     1     0     0
SMALL
No Charge or Current Charge


@<TRIPOS>ATOM
      1 C4          31.9730     7.3250    38.6300 c6         1 RVM      -0.120400
      2 C5          32.2110     6.9360    40.1030 c6         1 RVM       0.172300
      3 O5          30.9910     7.1350    40.8430 os         1 RVM      -0.446000
      4 C6          33.2970     7.8100    40.7740 c3         1 RVM      -0.087100
      5 C3          30.8260     6.4880    38.0140 c6         1 RVM       0.163300
      6 O3          30.6190     6.9710    36.6610 os         1 RVM      -0.459000
      7 C3O         29.7210     6.2390    35.8050 c3         1 RVM       0.149900
      8 C2          29.5320     6.5610    38.9010 c6         1 RVM       0.077300
      9 O2          28.5490     5.5770    38.4660 os         1 RVM      -0.472000
     10 C2O         27.2090     5.7070    38.9840 c3         1 RVM       0.151900
     11 C1          29.8730     6.3370    40.4160 c6         1 RVM       0.395300
     12 H41         32.8940     7.1720    38.0510 hc         1 RVM       0.060700
     13 H42         31.7300     8.3950    38.5630 hc         1 RVM       0.060700
     14 H5          32.5210     5.8820    40.1710 h1         1 RVM       0.052700
     15 H61         33.4420     7.5190    41.8210 hc         1 RVM       0.044700
     16 H62         34.2600     7.7000    40.2630 hc         1 RVM       0.044700
     17 H63         33.0250     8.8720    40.7530 hc         1 RVM       0.044700
     18 H3          31.1580     5.4400    37.9630 h1         1 RVM       0.056700
     19 H8          29.8150     6.5910    34.7700 h1         1 RVM       0.030700
     20 H9          29.9500     5.1660    35.8210 h1         1 RVM       0.030700
     21 H10         28.6770     6.3840    36.1090 h1         1 RVM       0.030700
     22 H2          29.0990     7.5660    38.7910 h1         1 RVM       0.066700
     23 H12         26.5580     4.9390    38.5480 h1         1 RVM       0.034033
     24 H13         27.1890     5.5860    40.0750 h1         1 RVM       0.034033
     25 H14         26.7900     6.6900    38.7350 h1         1 RVM       0.034033
     26 H1          28.9930     6.6220    41.0130 h2         1 RVM       0.067700
     27 O1          30.1790     4.9640    40.6650 oh         1 RVM      -0.749000
     28 HO1         29.5670     4.4820    40.0610 ho         1 RVM       0.532000
@<TRIPOS>BOND
     1     1     2 1   
     2     1     5 1   
     3     1    12 1   
     4     1    13 1   
     5     2     3 1   
     6     2     4 1   
     7     2    14 1   
     8     3    11 1   
     9     4    15 1   
    10     4    16 1   
    11     4    17 1   
    12     5     6 1   
    13     5     8 1   
    14     5    18 1   
    15     6     7 1   
    16     7    19 1   
    17     7    20 1   
    18     7    21 1   
    19     8     9 1   
    20     8    11 1   
    21     8    22 1   
    22     9    10 1   
    23    10    23 1   
    24    10    24 1   
    25    10    25 1   
    26    11    26 1   
    27    11    27 1   
    28    27    28 1   
@<TRIPOS>SUBSTRUCTURE
     1 RVM         1 TEMP              0 ****  ****    0 ROOT
