@<TRIPOS>MOLECULE
RVN
   33    36     1     0     0
SMALL
No Charge or Current Charge


@<TRIPOS>ATOM
      1 O1           3.1540    -2.6910     1.1760 o          1 RVN      -0.549000
      2 C2           3.0890    -1.5740     0.6870 c          1 RVN       0.575200
      3 C4           0.5780    -1.1850     0.4490 ce         1 RVN       0.081800
      4 C5          -0.6400    -0.3340     0.5740 ca         1 RVN      -0.076800
      5 C6          -0.5900     0.8530     1.3500 ca         1 RVN      -0.124000
      6 C7          -1.7320     1.6650     1.5010 ca         1 RVN      -0.132000
      7 C8          -2.9150     1.2540     0.8790 ca         1 RVN       0.029100
      8 O9          -4.0950     1.9240     0.9070 os         1 RVN      -0.366100
      9 C10         -4.9980     1.0120     0.1890 c5         1 RVN       0.365600
     10 O11         -4.2150    -0.0850    -0.3950 os         1 RVN      -0.297100
     11 C12         -2.9800     0.1040     0.1410 ca         1 RVN       0.073100
     12 C13         -1.8620    -0.7270    -0.0390 ca         1 RVN      -0.089600
     13 C14         -1.9730    -1.9820    -0.8630 c          1 RVN       0.713600
     14 O15         -2.7120    -2.8710    -0.4640 o          1 RVN      -0.695000
     15 O16         -1.2770    -2.0780    -1.8640 o          1 RVN      -0.695000
     16 C17          2.3900     0.4990    -0.2310 ca         1 RVN      -0.055800
     17 C18          3.7700     0.4950    -0.1220 ca         1 RVN       0.051600
     18 N19          4.1350    -0.7330     0.4150 ns         1 RVN      -0.412100
     19 C20          4.5640     1.5720    -0.5260 ca         1 RVN      -0.162000
     20 C21          3.9080     2.6950    -1.0730 ca         1 RVN      -0.099000
     21 C22          2.4980     2.7040    -1.2100 ca         1 RVN      -0.150000
     22 C23          1.7230     1.5980    -0.7950 ca         1 RVN      -0.058000
     23 C3           1.8890    -0.7960     0.2710 cd         1 RVN      -0.216400
     24 H19          5.0960    -0.9900     0.6040 hn         1 RVN       0.321500
     25 H4           0.4440    -2.2040     0.8170 ha         1 RVN       0.218000
     26 H6           0.3390     1.1460     1.8350 ha         1 RVN       0.108000
     27 H7          -1.6970     2.5810     2.0850 ha         1 RVN       0.113000
     28 H101        -5.7190     0.5930     0.9010 h2         1 RVN       0.045700
     29 H102        -5.5220     1.5570    -0.6050 h2         1 RVN       0.045700
     30 H23          0.6440     1.6010    -0.9260 ha         1 RVN       0.132000
     31 H20          5.6460     1.5430    -0.4270 ha         1 RVN       0.104000
     32 H21          4.4890     3.5540    -1.4000 ha         1 RVN       0.097000
     33 H22          2.0060     3.5700    -1.6460 ha         1 RVN       0.104000
@<TRIPOS>BOND
     1     1     2 2   
     2     2    18 1   
     3     2    23 1   
     4     3     4 1   
     5     3    23 2   
     6     3    25 1   
     7     4     5 ar  
     8     4    12 ar  
     9     5     6 ar  
    10     5    26 1   
    11     6     7 ar  
    12     6    27 1   
    13     7     8 1   
    14     7    11 ar  
    15     8     9 1   
    16     9    10 1   
    17     9    28 1   
    18     9    29 1   
    19    10    11 1   
    20    11    12 ar  
    21    12    13 1   
    22    13    14 1   
    23    13    15 1   
    24    16    17 ar  
    25    16    22 ar  
    26    16    23 1   
    27    17    18 1   
    28    17    19 ar  
    29    18    24 1   
    30    19    20 ar  
    31    19    31 1   
    32    20    21 ar  
    33    20    32 1   
    34    21    22 ar  
    35    21    33 1   
    36    22    30 1   
@<TRIPOS>SUBSTRUCTURE
     1 RVN         1 TEMP              0 ****  ****    0 ROOT
