@<TRIPOS>MOLECULE
RVN
   33    36     1     0     0
SMALL
bcc


@<TRIPOS>ATOM
      1 O1           3.0630    -2.6470     1.0450 o          1 RVN      -0.624500
      2 C2           3.0160    -1.5120     0.6070 c          1 RVN       0.717700
      3 C4           0.5890    -1.1150     0.6770 ce         1 RVN       0.131800
      4 C5          -0.6490    -0.3280     0.7070 ca         1 RVN      -0.076800
      5 C6          -0.6620     0.8260     1.4830 ca         1 RVN      -0.142000
      6 C7          -1.8130     1.6010     1.6410 ca         1 RVN      -0.150000
      7 C8          -2.9390     1.1590     0.9960 ca         1 RVN       0.029100
      8 O9          -4.1700     1.7180     0.9890 os         1 RVN      -0.342900
      9 C10         -4.9180     1.0010     0.0180 c5         1 RVN       0.319200
     10 O11         -4.1950    -0.1860    -0.2620 os         1 RVN      -0.273900
     11 C12         -2.9470    -0.0050     0.2350 ca         1 RVN       0.073100
     12 C13         -1.8230    -0.7850     0.0610 ca         1 RVN      -0.089600
     13 C14         -1.8250    -2.0320    -0.8040 c          1 RVN       0.924200
     14 O15         -2.9330    -2.5160    -1.0910 o          1 RVN      -0.800300
     15 O16         -0.7040    -2.4520    -1.1490 o          1 RVN      -0.800300
     16 C17          2.3130     0.6080    -0.1550 ca         1 RVN      -0.055800
     17 C18          3.7080     0.4830    -0.2520 ca         1 RVN       0.051600
     18 N19          4.0900    -0.7650     0.2140 ns         1 RVN      -0.479100
     19 C20          4.5080     1.4870    -0.7630 ca         1 RVN      -0.180000
     20 C21          3.8820     2.6510    -1.2010 ca         1 RVN      -0.117000
     21 C22          2.5010     2.7900    -1.1320 ca         1 RVN      -0.168000
     22 C23          1.7090     1.7710    -0.6090 ca         1 RVN      -0.076000
     23 C3           1.8190    -0.6490     0.4020 cd         1 RVN      -0.216400
     24 H19          5.0420    -1.0940     0.2510 hn         1 RVN       0.321500
     25 H4           0.5250    -2.1450     1.0070 ha         1 RVN       0.168000
     26 H6           0.2440     1.1330     1.9910 ha         1 RVN       0.126000
     27 H7          -1.8120     2.4970     2.2460 ha         1 RVN       0.131000
     28 H101        -5.9000     0.7500     0.4180 h2         1 RVN       0.045700
     29 H102        -5.0170     1.6030    -0.8920 h2         1 RVN       0.045700
     30 H23          0.6360     1.8970    -0.5620 ha         1 RVN       0.150000
     31 H20          5.5820     1.3720    -0.8270 ha         1 RVN       0.122000
     32 H21          4.4830     3.4560    -1.6050 ha         1 RVN       0.115000
     33 H22          2.0350     3.6990    -1.4880 ha         1 RVN       0.122000
@<TRIPOS>BOND
     1     1     2 2   
     2     2    18 1   
     3     2    23 1   
     4     3     4 1   
     5     3    23 2   
     6     3    25 1   
     7     4     5 ar  
     8     4    12 ar  
     9     5     6 ar  
    10     5    26 1   
    11     6     7 ar  
    12     6    27 1   
    13     7     8 1   
    14     7    11 ar  
    15     8     9 1   
    16     9    10 1   
    17     9    28 1   
    18     9    29 1   
    19    10    11 1   
    20    11    12 ar  
    21    12    13 1   
    22    13    14 1   
    23    13    15 1   
    24    16    17 ar  
    25    16    22 ar  
    26    16    23 1   
    27    17    18 1   
    28    17    19 ar  
    29    18    24 1   
    30    19    20 ar  
    31    19    31 1   
    32    20    21 ar  
    33    20    32 1   
    34    21    22 ar  
    35    21    33 1   
    36    22    30 1   
@<TRIPOS>SUBSTRUCTURE
     1 RVN         1 TEMP              0 ****  ****    0 ROOT
