@<TRIPOS>MOLECULE
RVO
   34    36     1     0     0
SMALL
No Charge or Current Charge


@<TRIPOS>ATOM
      1 C16        -54.1110   -26.3920    10.2500 ca         1 RVO      -0.227500
      2 C17        -53.0230   -29.0940     6.4190 c5         1 RVO       0.232800
      3 C15        -54.7630   -26.1530    11.4660 ca         1 RVO       0.363900
      4 C13        -55.8980   -28.1630    11.3310 ca         1 RVO       0.363900
      5 C12        -55.2910   -28.4820    10.1080 ca         1 RVO      -0.227500
      6 C11        -54.3620   -27.5760     9.5480 ca         1 RVO       0.176100
      7 C19        -49.9680   -29.7640     3.6520 ca         1 RVO       0.199900
      8 C02        -48.2730   -29.1440     5.0350 ca         1 RVO       0.409900
      9 C03        -49.1680   -29.0200     6.1140 ca         1 RVO      -0.138000
     10 C05        -50.5290   -29.3220     5.8410 ca         1 RVO       0.438900
     11 C07        -51.4260   -29.5490     8.2430 c5         1 RVO       0.237800
     12 C08        -52.8430   -30.0480     8.6210 c5         1 RVO      -0.126400
     13 C09        -53.7600   -29.0970     7.7950 c5         1 RVO       0.153300
     14 N06        -51.5810   -29.2610     6.7930 nh         1 RVO      -0.784300
     15 N14        -55.6440   -27.0210    12.0080 nb         1 RVO      -0.687000
     16 N18        -50.9180   -29.6840     4.6010 nb         1 RVO      -0.303000
     17 N20        -48.6570   -29.5140     3.8100 nb         1 RVO      -0.289000
     18 O10        -53.6910   -27.7430     8.3420 os         1 RVO      -0.341100
     19 Cl04       -48.5690   -28.4530     7.6920 cl         1 RVO      -0.214000
     20 H161       -53.4130   -25.6590     9.8580 ha         1 RVO       0.130500
     21 H172       -53.2080   -28.1610     5.8680 h1         1 RVO       0.076200
     22 H171       -53.3730   -29.9310     5.7990 h1         1 RVO       0.076200
     23 H151       -54.5750   -25.2380    12.0260 h4         1 RVO       0.019100
     24 H131       -56.6160   -28.8450    11.7860 h4         1 RVO       0.019100
     25 H121       -55.5650   -29.4190     9.6390 ha         1 RVO       0.130500
     26 H191       -50.2940   -30.0620     2.6570 h5         1 RVO       0.046100
     27 H071       -50.6670   -30.3190     8.4440 h1         1 RVO       0.064200
     28 H072       -51.1620   -28.6420     8.8050 h1         1 RVO       0.064200
     29 H082       -53.0190   -30.0090     9.7010 hc         1 RVO       0.068700
     30 H081       -52.9850   -31.0890     8.3110 hc         1 RVO       0.068700
     31 H091       -54.8010   -29.4250     7.6810 h1         1 RVO       0.069700
     32 H011       -46.3960   -28.7510     4.3070 hn         1 RVO       0.497000
     33 H012       -46.6210   -28.3940     5.9890 hn         1 RVO       0.497000
     34 N01        -46.9420   -28.8810     5.1550 nv         1 RVO      -1.064900
@<TRIPOS>BOND
     1     1     3 ar  
     2     1     6 ar  
     3     1    20 1   
     4     2    13 1   
     5     2    14 1   
     6     2    21 1   
     7     2    22 1   
     8     3    15 ar  
     9     3    23 1   
    10     4     5 ar  
    11     4    15 ar  
    12     4    24 1   
    13     5     6 ar  
    14     5    25 1   
    15     6    18 1   
    16     7    16 ar  
    17     7    17 ar  
    18     7    26 1   
    19     8     9 ar  
    20     8    17 ar  
    21     8    34 1   
    22     9    10 ar  
    23     9    19 1   
    24    10    14 1   
    25    10    16 ar  
    26    11    12 1   
    27    11    14 1   
    28    11    27 1   
    29    11    28 1   
    30    12    13 1   
    31    12    29 1   
    32    12    30 1   
    33    13    18 1   
    34    13    31 1   
    35    32    34 1   
    36    33    34 1   
@<TRIPOS>SUBSTRUCTURE
     1 RVO         1 TEMP              0 ****  ****    0 ROOT
