@<TRIPOS>MOLECULE
RVO
   34    36     1     0     0
SMALL
abcg2


@<TRIPOS>ATOM
      1 C16        -54.2850   -26.3170    10.0370 ca         1 RVO      -0.227500
      2 C17        -52.9190   -29.1600     6.5620 c5         1 RVO       0.232800
      3 C15        -55.0340   -25.9820    11.1500 ca         1 RVO       0.363900
      4 C13        -55.9080   -28.0770    11.3060 ca         1 RVO       0.363900
      5 C12        -55.2020   -28.5250    10.1960 ca         1 RVO      -0.227500
      6 C11        -54.3670   -27.6200     9.5380 ca         1 RVO       0.176100
      7 C19        -50.1610   -29.1840     3.6660 ca         1 RVO       0.199900
      8 C02        -48.3240   -29.1550     4.9980 ca         1 RVO       0.409900
      9 C03        -49.1640   -29.1300     6.1210 ca         1 RVO      -0.138000
     10 C05        -50.5580   -29.1950     5.9270 ca         1 RVO       0.438900
     11 C07        -51.3000   -29.7080     8.2890 c5         1 RVO       0.237800
     12 C08        -52.7020   -30.1380     8.7220 c5         1 RVO      -0.126400
     13 C09        -53.6180   -29.2340     7.9050 c5         1 RVO       0.153300
     14 N06        -51.4920   -29.2400     6.9030 nh         1 RVO      -0.784300
     15 N14        -55.8430   -26.8360    11.7940 nb         1 RVO      -0.687000
     16 N18        -51.0370   -29.1900     4.6560 nb         1 RVO      -0.303000
     17 N20        -48.8390   -29.1950     3.7490 nb         1 RVO      -0.289000
     18 O10        -53.6340   -27.8920     8.4400 os         1 RVO      -0.341100
     19 CL04       -48.4110   -28.9050     7.6880 cl         1 RVO      -0.214000
     20 H161       -53.6480   -25.5900     9.5520 ha         1 RVO       0.130500
     21 H172       -53.1490   -28.2370     6.0320 h1         1 RVO       0.076200
     22 H171       -53.2270   -30.0010     5.9370 h1         1 RVO       0.076200
     23 H151       -54.9820   -24.9740    11.5470 h4         1 RVO       0.019100
     24 H131       -56.5600   -28.7690    11.8280 h4         1 RVO       0.019100
     25 H121       -55.3140   -29.5490     9.8750 ha         1 RVO       0.130500
     26 H191       -50.5770   -29.1750     2.6630 h5         1 RVO       0.046100
     27 H071       -50.5920   -30.5330     8.3230 h1         1 RVO       0.064200
     28 H072       -50.9270   -28.9050     8.9240 h1         1 RVO       0.064200
     29 H082       -52.8490   -30.0420     9.7960 hc         1 RVO       0.068700
     30 H081       -52.8940   -31.1740     8.4390 hc         1 RVO       0.068700
     31 H091       -54.6390   -29.5990     7.8090 h1         1 RVO       0.069700
     32 H011       -46.4510   -28.9870     4.2530 hn         1 RVO       0.497000
     33 H012       -46.5320   -28.9340     5.9730 hn         1 RVO       0.497000
     34 N01        -46.9750   -29.1530     5.0970 nv         1 RVO      -1.064900
@<TRIPOS>BOND
     1     1     3 ar  
     2     1     6 ar  
     3     1    20 1   
     4     2    13 1   
     5     2    14 1   
     6     2    21 1   
     7     2    22 1   
     8     3    15 ar  
     9     3    23 1   
    10     4     5 ar  
    11     4    15 ar  
    12     4    24 1   
    13     5     6 ar  
    14     5    25 1   
    15     6    18 1   
    16     7    16 ar  
    17     7    17 ar  
    18     7    26 1   
    19     8     9 ar  
    20     8    17 ar  
    21     8    34 1   
    22     9    10 ar  
    23     9    19 1   
    24    10    14 1   
    25    10    16 ar  
    26    11    12 1   
    27    11    14 1   
    28    11    27 1   
    29    11    28 1   
    30    12    13 1   
    31    12    29 1   
    32    12    30 1   
    33    13    18 1   
    34    13    31 1   
    35    32    34 1   
    36    33    34 1   
@<TRIPOS>SUBSTRUCTURE
     1 RVO         1 TEMP              0 ****  ****    0 ROOT
