@<TRIPOS>MOLECULE
RVQ
   53    57     1     0     0
SMALL
abcg2


@<TRIPOS>ATOM
      1 C10        -64.3930    25.9400    -0.7590 ca         1 RVQ      -0.100000
      2 C9         -65.8240    23.9470    -0.8210 ca         1 RVQ       0.071400
      3 C8         -64.7410    24.7140    -1.3070 ca         1 RVQ      -0.068200
      4 N2         -62.6540    23.3480    -4.7240 nb         1 RVQ      -0.385000
      5 C7         -64.9690    22.8360    -2.4460 cc         1 RVQ       0.390800
      6 N1         -64.7160    22.2880    -4.8420 nu         1 RVQ      -0.926100
      7 C1         -64.6610    21.7940    -3.4770 c3         1 RVQ       0.219500
      8 C2         -63.7270    22.9870    -5.4380 ca         1 RVQ       0.480900
      9 C3         -61.6460    24.0260    -5.3240 ca         1 RVQ       0.434900
     10 C4         -62.7130    24.0900    -7.2840 ca         1 RVQ       0.172500
     11 C5         -63.7950    23.3580    -6.7940 ca         1 RVQ      -0.133600
     12 C6         -64.2400    23.7620    -8.8350 cc         1 RVQ       0.399700
     13 O1         -58.2600    24.8390    -2.9660 os         1 RVQ      -0.452000
     14 C11        -65.1620    26.3920     0.3050 ca         1 RVQ       0.138000
     15 C12        -66.2450    25.6390     0.8000 ca         1 RVQ       0.098000
     16 C13        -66.5850    24.4150     0.2450 ca         1 RVQ      -0.032000
     17 C15        -60.8910    24.3770    -9.8570 c3         1 RVQ      -0.107600
     18 C16        -62.0460    26.5400    -9.1800 c3         1 RVQ      -0.107600
     19 C17        -60.5750    24.0870    -3.1050 c6         1 RVQ       0.186300
     20 C18        -59.1750    23.8150    -2.5850 c6         1 RVQ       0.141100
     21 C19        -58.1950    24.9360    -4.3870 c6         1 RVQ       0.141100
     22 C20        -59.5500    25.2590    -4.9920 c6         1 RVQ       0.186300
     23 N3         -61.6240    24.4490    -6.5960 nb         1 RVQ      -0.280000
     24 N4         -64.7430    23.1610    -7.7840 nd         1 RVQ      -0.543100
     25 N5         -63.0150    24.3460    -8.6010 na         1 RVQ      -0.294300
     26 N6         -60.5430    24.2860    -4.5500 nh         1 RVQ      -0.769300
     27 N7         -64.2200    23.9730    -2.3390 na         1 RVQ      -0.303600
     28 N8         -65.9390    22.7780    -1.5590 nd         1 RVQ      -0.572100
     29 CL1        -64.7490    27.9260     1.0220 cl         1 RVQ      -0.183000
     30 CL2        -67.1960    26.2340     2.1360 cl         1 RVQ      -0.185000
     31 H6         -63.5650    26.5260    -1.1300 ha         1 RVQ       0.136000
     32 H3         -65.5390    22.0900    -5.3870 hn         1 RVQ       0.527000
     33 H1         -65.3870    20.9920    -3.3760 h1         1 RVQ       0.083200
     34 H2         -63.6660    21.3840    -3.2870 h1         1 RVQ       0.083200
     35 H4         -64.7030    23.8200    -9.8080 h5         1 RVQ       0.066800
     36 H7         -67.4190    23.8480     0.6350 ha         1 RVQ       0.147000
     37 H8         -62.8190    25.0460   -10.5060 h1         1 RVQ       0.053700
     38 H9         -61.0570    23.3420   -10.1600 hc         1 RVQ       0.052200
     39 H11        -60.3590    24.8910   -10.6590 hc         1 RVQ       0.052200
     40 H10        -60.2650    24.3840    -8.9650 hc         1 RVQ       0.052200
     41 H14        -63.0150    27.0080    -9.0030 hc         1 RVQ       0.052200
     42 H12        -61.4490    26.6150    -8.2710 hc         1 RVQ       0.052200
     43 H13        -61.5370    27.0860    -9.9750 hc         1 RVQ       0.052200
     44 H15        -60.9860    24.9780    -2.6090 h1         1 RVQ       0.061200
     45 H16        -61.2150    23.2420    -2.8710 h1         1 RVQ       0.061200
     46 H17        -59.1830    23.7860    -1.4960 h1         1 RVQ       0.057200
     47 H18        -58.8200    22.8490    -2.9660 h1         1 RVQ       0.057200
     48 H20        -57.8200    23.9910    -4.8000 h1         1 RVQ       0.057200
     49 H19        -57.4850    25.7300    -4.6180 h1         1 RVQ       0.057200
     50 H22        -59.4800    25.2330    -6.0750 h1         1 RVQ       0.061200
     51 H21        -59.8580    26.2700    -4.6930 h1         1 RVQ       0.061200
     52 H5         -63.4360    24.1740    -2.9510 hn         1 RVQ       0.390000
     53 C14        -62.2190    25.0820    -9.5950 c3         1 RVQ       0.106300
@<TRIPOS>BOND
     1     1     3 ar  
     2     1    14 ar  
     3     1    31 1   
     4     2     3 ar  
     5     2    16 ar  
     6     2    28 1   
     7     3    27 1   
     8     4     8 ar  
     9     4     9 ar  
    10     5     7 1   
    11     5    27 1   
    12     5    28 2   
    13     6     7 1   
    14     6     8 1   
    15     6    32 1   
    16     7    33 1   
    17     7    34 1   
    18     8    11 ar  
    19     9    23 ar  
    20     9    26 1   
    21    10    11 ar  
    22    10    23 ar  
    23    10    25 1   
    24    11    24 1   
    25    12    24 2   
    26    12    25 1   
    27    12    35 1   
    28    13    20 1   
    29    13    21 1   
    30    14    15 ar  
    31    14    29 1   
    32    15    16 ar  
    33    15    30 1   
    34    16    36 1   
    35    17    38 1   
    36    17    39 1   
    37    17    40 1   
    38    17    53 1   
    39    18    41 1   
    40    18    42 1   
    41    18    43 1   
    42    18    53 1   
    43    19    20 1   
    44    19    26 1   
    45    19    44 1   
    46    19    45 1   
    47    20    46 1   
    48    20    47 1   
    49    21    22 1   
    50    21    48 1   
    51    21    49 1   
    52    22    26 1   
    53    22    50 1   
    54    22    51 1   
    55    25    53 1   
    56    27    52 1   
    57    37    53 1   
@<TRIPOS>SUBSTRUCTURE
     1 RVQ         1 TEMP              0 ****  ****    0 ROOT
