@<TRIPOS>MOLECULE
RVQ
   53    57     1     0     0
SMALL
No Charge or Current Charge


@<TRIPOS>ATOM
      1 C10        -64.5160    26.0280    -0.9660 ca         1 RVQ      -0.100000
      2 C9         -65.8950    24.0290    -0.8940 ca         1 RVQ       0.071400
      3 C8         -64.8660    24.7520    -1.4210 ca         1 RVQ      -0.068200
      4 N2         -62.5200    23.0940    -4.7200 nb         1 RVQ      -0.385000
      5 C7         -65.0410    22.7980    -2.4570 cc         1 RVQ       0.390800
      6 N1         -64.6190    22.0710    -4.8570 nu         1 RVQ      -0.926100
      7 C1         -64.7390    21.6570    -3.4260 c3         1 RVQ       0.219500
      8 C2         -63.6140    22.8220    -5.4490 ca         1 RVQ       0.480900
      9 C3         -61.5650    23.8420    -5.3150 ca         1 RVQ       0.434900
     10 C4         -62.7230    24.0500    -7.2820 ca         1 RVQ       0.172500
     11 C5         -63.7460    23.3000    -6.7650 ca         1 RVQ      -0.133600
     12 C6         -64.3910    23.8010    -8.7600 cc         1 RVQ       0.399700
     13 O1         -58.1240    24.8930    -2.9030 os         1 RVQ      -0.452000
     14 C11        -65.2780    26.5730     0.0880 ca         1 RVQ       0.138000
     15 C12        -66.3550    25.8330     0.6480 ca         1 RVQ       0.098000
     16 C13        -66.6690    24.5470     0.1540 ca         1 RVQ      -0.032000
     17 C15        -61.0150    24.4980    -9.8960 c3         1 RVQ      -0.107600
     18 C16        -62.1320    26.6270    -9.0050 c3         1 RVQ      -0.107600
     19 C17        -60.3320    23.7860    -3.0770 c6         1 RVQ       0.186300
     20 C18        -58.8700    23.7080    -2.5460 c6         1 RVQ       0.141100
     21 C19        -58.0370    25.0710    -4.3340 c6         1 RVQ       0.141100
     22 C20        -59.4510    25.2240    -4.9670 c6         1 RVQ       0.186300
     23 N3         -61.6170    24.3370    -6.5730 nb         1 RVQ      -0.280000
     24 N4         -64.8040    23.1290    -7.6690 nd         1 RVQ      -0.543100
     25 N5         -63.1320    24.3680    -8.5500 na         1 RVQ      -0.294300
     26 N6         -60.4130    24.1420    -4.5410 nh         1 RVQ      -0.769300
     27 N7         -64.3190    23.9900    -2.4050 na         1 RVQ      -0.303600
     28 N8         -66.0250    22.7960    -1.5280 nd         1 RVQ      -0.572100
     29 Cl1        -64.8700    28.1800     0.6910 cl         1 RVQ      -0.183000
     30 Cl2        -67.3210    26.4960     1.9680 cl         1 RVQ      -0.185000
     31 H6         -63.6900    26.5810    -1.4050 ha         1 RVQ       0.136000
     32 H3         -65.4290    21.9360    -5.4660 hn         1 RVQ       0.527000
     33 H1         -65.5440    20.9170    -3.3240 h1         1 RVQ       0.083200
     34 H2         -63.8150    21.1620    -3.0950 h1         1 RVQ       0.083200
     35 H4         -64.9320    23.9100    -9.6930 h5         1 RVQ       0.066800
     36 H7         -67.4890    23.9730     0.5760 ha         1 RVQ       0.147000
     37 H8         -62.9410    25.2490   -10.4170 h1         1 RVQ       0.053700
     38 H9         -61.2010    23.4840   -10.2700 hc         1 RVQ       0.052200
     39 H11        -60.5150    25.0650   -10.6900 hc         1 RVQ       0.052200
     40 H10        -60.3300    24.4300    -9.0430 hc         1 RVQ       0.052200
     41 H14        -63.0940    27.0930    -8.7590 hc         1 RVQ       0.052200
     42 H12        -61.4970    26.6560    -8.1120 hc         1 RVQ       0.052200
     43 H13        -61.6520    27.2320    -9.7830 hc         1 RVQ       0.052200
     44 H15        -60.8810    24.5310    -2.4830 h1         1 RVQ       0.061200
     45 H16        -60.7970    22.8090    -2.8820 h1         1 RVQ       0.061200
     46 H17        -58.8780    23.6030    -1.4520 h1         1 RVQ       0.057200
     47 H18        -58.3680    22.8250    -2.9670 h1         1 RVQ       0.057200
     48 H20        -57.5250    24.2030    -4.7750 h1         1 RVQ       0.057200
     49 H19        -57.4340    25.9640    -4.5510 h1         1 RVQ       0.057200
     50 H22        -59.3150    25.2280    -6.0590 h1         1 RVQ       0.061200
     51 H21        -59.8550    26.2090    -4.6900 h1         1 RVQ       0.061200
     52 H5         -63.5470    24.2260    -3.0150 hn         1 RVQ       0.390000
     53 C14        -62.3420    25.1790    -9.4990 c3         1 RVQ       0.106300
@<TRIPOS>BOND
     1     1     3 ar  
     2     1    14 ar  
     3     1    31 1   
     4     2     3 ar  
     5     2    16 ar  
     6     2    28 1   
     7     3    27 1   
     8     4     8 ar  
     9     4     9 ar  
    10     5     7 1   
    11     5    27 1   
    12     5    28 2   
    13     6     7 1   
    14     6     8 1   
    15     6    32 1   
    16     7    33 1   
    17     7    34 1   
    18     8    11 ar  
    19     9    23 ar  
    20     9    26 1   
    21    10    11 ar  
    22    10    23 ar  
    23    10    25 1   
    24    11    24 1   
    25    12    24 2   
    26    12    25 1   
    27    12    35 1   
    28    13    20 1   
    29    13    21 1   
    30    14    15 ar  
    31    14    29 1   
    32    15    16 ar  
    33    15    30 1   
    34    16    36 1   
    35    17    38 1   
    36    17    39 1   
    37    17    40 1   
    38    17    53 1   
    39    18    41 1   
    40    18    42 1   
    41    18    43 1   
    42    18    53 1   
    43    19    20 1   
    44    19    26 1   
    45    19    44 1   
    46    19    45 1   
    47    20    46 1   
    48    20    47 1   
    49    21    22 1   
    50    21    48 1   
    51    21    49 1   
    52    22    26 1   
    53    22    50 1   
    54    22    51 1   
    55    25    53 1   
    56    27    52 1   
    57    37    53 1   
@<TRIPOS>SUBSTRUCTURE
     1 RVQ         1 TEMP              0 ****  ****    0 ROOT
