@<TRIPOS>MOLECULE
RVR
   44    47     1     0     0
SMALL
No Charge or Current Charge


@<TRIPOS>ATOM
      1 N1         -20.1910     4.4750    27.5260 ns         1 RVR      -0.150000
      2 C4         -21.8170     3.8830    30.7650 ca         1 RVR       0.008700
      3 C5         -21.5760     2.4960    30.7970 ca         1 RVR      -0.118000
      4 C6         -21.7860     4.6090    29.4180 c6         1 RVR      -0.149400
      5 C7         -22.5110     5.9680    29.4070 c6         1 RVR       0.185800
      6 C8         -20.3510     4.7510    28.8760 c          1 RVR       0.601100
      7 C10        -18.6250     3.3930    26.0140 ca         1 RVR       0.323900
      8 C13        -16.2600     6.9210    25.4460 c6         1 RVR      -0.027100
      9 C15        -18.0430     8.3090    26.5930 c6         1 RVR      -0.071400
     10 C17        -18.2740     5.7400    26.5530 ca         1 RVR      -0.015300
     11 O2         -19.4120     5.0180    29.6160 o          1 RVR      -0.588100
     12 C9         -19.0260     4.5490    26.7140 ca         1 RVR      -0.111000
     13 C16        -18.6880     7.0590    27.2320 c6         1 RVR      -0.039100
     14 C14        -16.5280     8.0950    26.4130 c6         1 RVR      -0.075400
     15 C12        -17.1330     5.6870    25.7160 ca         1 RVR      -0.114300
     16 C11        -16.8110     4.4730    25.0770 ca         1 RVR       0.333900
     17 N2         -17.5390     3.3440    25.2130 nb         1 RVR      -0.648000
     18 C          -21.5930     1.7980    32.0140 ca         1 RVR       0.170000
     19 Cl         -21.2880     0.0660    32.0360 cl         1 RVR      -0.190000
     20 N          -22.0200     6.8580    30.4760 n7         1 RVR      -0.828300
     21 S          -22.3930     6.3400    32.0160 sy         1 RVR       1.161600
     22 O          -21.4040     6.9720    32.8910 o          1 RVR      -0.531000
     23 O1         -23.8260     6.5890    32.2000 o          1 RVR      -0.531000
     24 C3         -22.0790     4.5690    31.9720 ca         1 RVR      -0.277500
     25 C2         -22.0940     3.8620    33.1930 ca         1 RVR       0.004000
     26 C1         -21.8510     2.4790    33.2120 ca         1 RVR      -0.108000
     27 H1         -21.0290     4.1770    27.0420 hn         1 RVR       0.158000
     28 H3         -22.3360     4.0120    28.6770 hc         1 RVR       0.082700
     29 H4         -22.3600     6.4530    28.4290 h1         1 RVR       0.086700
     30 H5         -23.5970     5.8150    29.5150 h1         1 RVR       0.086700
     31 H6         -19.1920     2.4670    26.1060 h4         1 RVR       0.021100
     32 H7         -15.1970     6.6470    25.4930 hc         1 RVR       0.052700
     33 H8         -16.4400     7.2580    24.4160 hc         1 RVR       0.052700
     34 H9         -18.2300     9.1890    27.2230 hc         1 RVR       0.045700
     35 H10        -18.5090     8.5130    25.6190 hc         1 RVR       0.045700
     36 H11        -18.3950     7.0220    28.2890 hc         1 RVR       0.061200
     37 H12        -19.7800     7.1740    27.2140 hc         1 RVR       0.061200
     38 H13        -16.0650     7.8870    27.3880 hc         1 RVR       0.049700
     39 H14        -16.0570     9.0100    26.0300 hc         1 RVR       0.049700
     40 H15        -15.9450     4.4070    24.4200 h4         1 RVR       0.022100
     41 H16        -21.0010     6.8270    30.5150 hn         1 RVR       0.502000
     42 H17        -22.2920     4.3810    34.1300 ha         1 RVR       0.139000
     43 H18        -21.8620     1.9360    34.1530 ha         1 RVR       0.140000
     44 H2         -21.3740     1.9540    29.8770 ha         1 RVR       0.125000
@<TRIPOS>BOND
     1     1     6 1   
     2     1    12 1   
     3     1    27 1   
     4     2     3 ar  
     5     2     4 1   
     6     2    24 ar  
     7     3    18 ar  
     8     3    44 1   
     9     4     5 1   
    10     4     6 1   
    11     4    28 1   
    12     5    20 1   
    13     5    29 1   
    14     5    30 1   
    15     6    11 2   
    16     7    12 ar  
    17     7    17 ar  
    18     7    31 1   
    19     8    14 1   
    20     8    15 1   
    21     8    32 1   
    22     8    33 1   
    23     9    13 1   
    24     9    14 1   
    25     9    34 1   
    26     9    35 1   
    27    10    12 ar  
    28    10    13 1   
    29    10    15 ar  
    30    13    36 1   
    31    13    37 1   
    32    14    38 1   
    33    14    39 1   
    34    15    16 ar  
    35    16    17 ar  
    36    16    40 1   
    37    18    19 1   
    38    18    26 ar  
    39    20    21 1   
    40    20    41 1   
    41    21    22 2   
    42    21    23 2   
    43    21    24 1   
    44    24    25 ar  
    45    25    26 ar  
    46    25    42 1   
    47    26    43 1   
@<TRIPOS>SUBSTRUCTURE
     1 RVR         1 TEMP              0 ****  ****    0 ROOT
