@<TRIPOS>MOLECULE
RVR
   44    47     1     0     0
SMALL
abcg2


@<TRIPOS>ATOM
      1 N1         -20.1990     4.5300    27.6430 ns         1 RVR      -0.150000
      2 C4         -21.8730     3.9980    30.6140 ca         1 RVR       0.008700
      3 C5         -21.8010     2.6200    30.4050 ca         1 RVR      -0.118000
      4 C6         -21.8360     4.9130    29.4050 c6         1 RVR      -0.149400
      5 C7         -22.3600     6.3280    29.7000 c6         1 RVR       0.185800
      6 C8         -20.3980     5.0090    28.8890 c          1 RVR       0.601100
      7 C10        -18.3550     3.3120    26.6750 ca         1 RVR       0.323900
      8 C13        -16.3080     6.8320    25.4960 c6         1 RVR      -0.027100
      9 C15        -18.3110     8.2050    26.0910 c6         1 RVR      -0.071400
     10 C17        -18.3090     5.7270    26.6130 ca         1 RVR      -0.015300
     11 O2         -19.5100     5.5140    29.5700 o          1 RVR      -0.588100
     12 C9         -18.9390     4.5330    26.9830 ca         1 RVR      -0.111000
     13 C16        -18.9370     7.0670    26.8930 c6         1 RVR      -0.039100
     14 C14        -16.7880     8.1230    26.1530 c6         1 RVR      -0.075400
     15 C12        -17.0760     5.6170    25.9600 ca         1 RVR      -0.114300
     16 C11        -16.5700     4.3420    25.7110 ca         1 RVR       0.333900
     17 N2         -17.1860     3.2060    26.0430 nb         1 RVR      -0.648000
     18 C          -21.7990     1.7510    31.4830 ca         1 RVR       0.170000
     19 CL         -21.7060     0.0340    31.1900 cl         1 RVR      -0.190000
     20 N          -21.7030     6.9280    30.8730 n7         1 RVR      -0.828300
     21 S          -22.0810     6.1910    32.2860 sy         1 RVR       1.161600
     22 O          -21.0850     6.5730    33.2580 o          1 RVR      -0.531000
     23 O1         -23.4680     6.4620    32.5810 o          1 RVR      -0.531000
     24 C3         -21.9400     4.4590    31.9310 ca         1 RVR      -0.277500
     25 C2         -21.9460     3.5770    33.0110 ca         1 RVR       0.004000
     26 C1         -21.8700     2.2130    32.7930 ca         1 RVR      -0.108000
     27 H1         -20.9550     4.0260    27.2030 hn         1 RVR       0.158000
     28 H3         -22.4700     4.4790    28.6310 hc         1 RVR       0.082700
     29 H4         -22.1850     6.9830    28.8480 h1         1 RVR       0.086700
     30 H5         -23.4320     6.2930    29.8840 h1         1 RVR       0.086700
     31 H6         -18.8580     2.3920    26.9560 h4         1 RVR       0.021100
     32 H7         -15.2420     6.6740    25.6740 hc         1 RVR       0.052700
     33 H8         -16.4260     6.9190    24.4100 hc         1 RVR       0.052700
     34 H9         -18.6660     9.1600    26.4810 hc         1 RVR       0.045700
     35 H10        -18.6320     8.1450    25.0460 hc         1 RVR       0.045700
     36 H11        -18.8310     7.2710    27.9630 hc         1 RVR       0.061200
     37 H12        -20.0120     7.0030    26.7090 hc         1 RVR       0.061200
     38 H13        -16.4670     8.1480    27.2000 hc         1 RVR       0.049700
     39 H14        -16.3310     8.9810    25.6570 hc         1 RVR       0.049700
     40 H15        -15.6120     4.2420    25.2100 h4         1 RVR       0.022100
     41 H16        -20.6890     6.9400    30.7590 hn         1 RVR       0.502000
     42 H17        -22.0020     3.9570    34.0220 ha         1 RVR       0.139000
     43 H18        -21.8660     1.5200    33.6230 ha         1 RVR       0.140000
     44 H2         -21.7470     2.2320    29.3970 ha         1 RVR       0.125000
@<TRIPOS>BOND
     1     1     6 1   
     2     1    12 1   
     3     1    27 1   
     4     2     3 ar  
     5     2     4 1   
     6     2    24 ar  
     7     3    18 ar  
     8     3    44 1   
     9     4     5 1   
    10     4     6 1   
    11     4    28 1   
    12     5    20 1   
    13     5    29 1   
    14     5    30 1   
    15     6    11 2   
    16     7    12 ar  
    17     7    17 ar  
    18     7    31 1   
    19     8    14 1   
    20     8    15 1   
    21     8    32 1   
    22     8    33 1   
    23     9    13 1   
    24     9    14 1   
    25     9    34 1   
    26     9    35 1   
    27    10    12 ar  
    28    10    13 1   
    29    10    15 ar  
    30    13    36 1   
    31    13    37 1   
    32    14    38 1   
    33    14    39 1   
    34    15    16 ar  
    35    16    17 ar  
    36    16    40 1   
    37    18    19 1   
    38    18    26 ar  
    39    20    21 1   
    40    20    41 1   
    41    21    22 2   
    42    21    23 2   
    43    21    24 1   
    44    24    25 ar  
    45    25    26 ar  
    46    25    42 1   
    47    26    43 1   
@<TRIPOS>SUBSTRUCTURE
     1 RVR         1 TEMP              0 ****  ****    0 ROOT
