@<TRIPOS>MOLECULE
RVS
   51    54     1     0     0
SMALL
No Charge or Current Charge


@<TRIPOS>ATOM
      1 C18        -49.5320   -29.4520     6.6810 ca         1 RVS      -0.005000
      2 C16        -49.1040   -28.2800     4.5790 ca         1 RVS      -0.042000
      3 C17        -49.8820   -28.4680     5.7340 ca         1 RVS      -0.173000
      4 C15        -47.9570   -29.0670     4.3370 ca         1 RVS      -0.159600
      5 C14        -47.1480   -28.8320     3.0770 c          1 RVS       0.604700
      6 C12        -45.1190   -29.5870     1.7520 c6         1 RVS       0.176000
      7 C11        -43.6050   -32.7860     0.1670 ca         1 RVS      -0.126000
      8 C10        -44.7560   -33.5620    -0.0360 ca         1 RVS      -0.127000
      9 C20        -47.6090   -30.0540     5.2910 ca         1 RVS      -0.042000
     10 C19        -48.3910   -30.2370     6.4450 ca         1 RVS      -0.173000
     11 C03        -43.7840   -28.9060     2.1620 c6         1 RVS      -0.203700
     12 C04        -42.6720   -29.1810     1.1180 c6         1 RVS      -0.046400
     13 C05        -42.4130   -30.6890     0.9220 c6         1 RVS      -0.029100
     14 C06        -43.6970   -31.5020     0.7380 ca         1 RVS      -0.045300
     15 C07        -44.9620   -30.9930     1.1300 ca         1 RVS      -0.048300
     16 C08        -46.1140   -31.7790     0.9020 ca         1 RVS      -0.096000
     17 C09        -46.0120   -33.0560     0.3270 ca         1 RVS      -0.131000
     18 C24        -52.9290   -29.2970    10.3640 cx         1 RVS       0.064700
     19 C25        -53.3480   -30.1890    11.5070 cx         1 RVS      -0.135400
     20 C26        -54.1740   -30.1400    10.2450 cx         1 RVS      -0.135400
     21 N13        -46.0520   -29.6390     2.8860 ns         1 RVS      -0.477900
     22 N21        -50.2680   -29.7000     7.8710 ns         1 RVS      -0.163000
     23 N23        -51.7790   -29.6920     9.5970 ns         1 RVS      -0.508900
     24 O27        -52.0600   -28.2240     7.8800 o          1 RVS      -0.618100
     25 O28        -47.4500   -27.9690     2.2630 o          1 RVS      -0.661100
     26 H161       -49.4000   -27.5120     3.8660 ha         1 RVS       0.139000
     27 H171       -50.7530   -27.8360     5.8720 ha         1 RVS       0.124000
     28 H121       -45.5690   -28.9660     0.9640 h1         1 RVS       0.056700
     29 H111       -42.6350   -33.1830    -0.1260 ha         1 RVS       0.094000
     30 H101       -44.6750   -34.5520    -0.4800 ha         1 RVS       0.091000
     31 H201       -46.7360   -30.6890     5.1600 ha         1 RVS       0.139000
     32 H191       -48.1020   -31.0020     7.1630 ha         1 RVS       0.124000
     33 H031       -43.9540   -27.8220     2.1270 hc         1 RVS       0.046700
     34 H041       -41.7420   -28.6760     1.4130 hc         1 RVS       0.032200
     35 H042       -42.9680   -28.7430     0.1550 hc         1 RVS       0.032200
     36 H051       -41.8550   -31.0860     1.7800 hc         1 RVS       0.046200
     37 H052       -41.7580   -30.8270     0.0510 hc         1 RVS       0.046200
     38 H081       -47.0980   -31.3990     1.1680 ha         1 RVS       0.114000
     39 H091       -46.9070   -33.6510     0.1630 ha         1 RVS       0.094000
     40 H241       -53.0450   -28.2180    10.4860 h1         1 RVS       0.083700
     41 H252       -53.7510   -29.7110    12.3960 hc         1 RVS       0.076700
     42 H251       -52.7660   -31.0870    11.6980 hc         1 RVS       0.076700
     43 H261       -55.1330   -29.6300    10.2840 hc         1 RVS       0.076700
     44 H262       -54.1440   -31.0030     9.5840 hc         1 RVS       0.076700
     45 H131       -45.8610   -30.3230     3.6040 hn         1 RVS       0.368500
     46 H211       -49.8750   -30.4370     8.4410 hn         1 RVS       0.141000
     47 H231       -51.1830   -30.4310     9.9490 hn         1 RVS       0.310500
     48 C02        -43.3480   -29.1990     3.6190 c          1 RVS       0.715000
     49 C22        -51.4170   -29.1280     8.3960 c          1 RVS       0.660100
     50 O01        -43.2080   -30.3590     3.9760 o          1 RVS      -0.732000
     51 O29        -43.2160   -28.2460     4.3730 o          1 RVS      -0.732000
@<TRIPOS>BOND
     1     1     3 ar  
     2     1    10 ar  
     3     1    22 1   
     4     2     3 ar  
     5     2     4 ar  
     6     2    26 1   
     7     3    27 1   
     8     4     5 1   
     9     4     9 ar  
    10     5    21 1   
    11     5    25 2   
    12     6    11 1   
    13     6    15 1   
    14     6    21 1   
    15     6    28 1   
    16     7     8 ar  
    17     7    14 ar  
    18     7    29 1   
    19     8    17 ar  
    20     8    30 1   
    21     9    10 ar  
    22     9    31 1   
    23    10    32 1   
    24    11    12 1   
    25    11    33 1   
    26    11    48 1   
    27    12    13 1   
    28    12    34 1   
    29    12    35 1   
    30    13    14 1   
    31    13    36 1   
    32    13    37 1   
    33    14    15 ar  
    34    15    16 ar  
    35    16    17 ar  
    36    16    38 1   
    37    17    39 1   
    38    18    19 1   
    39    18    20 1   
    40    18    23 1   
    41    18    40 1   
    42    19    20 1   
    43    19    41 1   
    44    19    42 1   
    45    20    43 1   
    46    20    44 1   
    47    21    45 1   
    48    22    46 1   
    49    22    49 1   
    50    23    47 1   
    51    23    49 1   
    52    24    49 2   
    53    48    50 1   
    54    48    51 1   
@<TRIPOS>SUBSTRUCTURE
     1 RVS         1 TEMP              0 ****  ****    0 ROOT
