@<TRIPOS>MOLECULE
RVS
   51    54     1     0     0
SMALL
abcg2


@<TRIPOS>ATOM
      1 C18        -49.4310   -29.3880     6.8180 ca         1 RVS      -0.005000
      2 C16        -49.2850   -29.0100     4.4420 ca         1 RVS      -0.042000
      3 C17        -50.0500   -29.1000     5.5950 ca         1 RVS      -0.173000
      4 C15        -47.9060   -29.2130     4.4530 ca         1 RVS      -0.159600
      5 C14        -47.1530   -29.0890     3.1680 c          1 RVS       0.604700
      6 C12        -45.0290   -29.5980     2.0040 c6         1 RVS       0.176000
      7 C11        -43.8820   -32.4920    -0.2100 ca         1 RVS      -0.126000
      8 C10        -45.0540   -33.2200    -0.3610 ca         1 RVS      -0.127000
      9 C20        -47.2960   -29.5020     5.6780 ca         1 RVS      -0.042000
     10 C19        -48.0420   -29.5840     6.8390 ca         1 RVS      -0.173000
     11 C03        -43.6350   -29.1530     2.4630 c6         1 RVS      -0.203700
     12 C04        -42.7000   -29.1720     1.2500 c6         1 RVS      -0.046400
     13 C05        -42.5290   -30.5920     0.7220 c6         1 RVS      -0.029100
     14 C06        -43.8380   -31.3280     0.5620 ca         1 RVS      -0.045300
     15 C07        -45.0090   -30.8900     1.1950 ca         1 RVS      -0.048300
     16 C08        -46.1850   -31.6250     1.0360 ca         1 RVS      -0.096000
     17 C09        -46.2160   -32.7820     0.2680 ca         1 RVS      -0.131000
     18 C24        -53.1000   -29.2290    10.0920 cx         1 RVS       0.064700
     19 C25        -53.5000   -29.9600    11.3370 cx         1 RVS      -0.135400
     20 C26        -54.0750   -30.3690    10.0070 cx         1 RVS      -0.135400
     21 N13        -45.9420   -29.6680     3.1310 ns         1 RVS      -0.477900
     22 N21        -50.1020   -29.4850     8.0360 ns         1 RVS      -0.163000
     23 N23        -51.7610   -29.4230     9.6230 ns         1 RVS      -0.508900
     24 O27        -52.3010   -29.1610     7.4270 o          1 RVS      -0.618100
     25 O28        -47.6400   -28.4870     2.2000 o          1 RVS      -0.661100
     26 H161       -49.7680   -28.7780     3.5020 ha         1 RVS       0.139000
     27 H171       -51.1150   -28.9510     5.5560 ha         1 RVS       0.124000
     28 H121       -45.4210   -28.8150     1.3510 h1         1 RVS       0.056700
     29 H111       -42.9740   -32.8290    -0.6980 ha         1 RVS       0.094000
     30 H101       -45.0630   -34.1180    -0.9660 ha         1 RVS       0.091000
     31 H201       -46.2250   -29.6420     5.7460 ha         1 RVS       0.139000
     32 H191       -47.5500   -29.7940     7.7810 ha         1 RVS       0.124000
     33 H031       -43.7220   -28.1230     2.8220 hc         1 RVS       0.046700
     34 H041       -41.7320   -28.7510     1.5200 hc         1 RVS       0.032200
     35 H042       -43.1270   -28.5370     0.4670 hc         1 RVS       0.032200
     36 H051       -41.8940   -31.1580     1.4130 hc         1 RVS       0.046200
     37 H052       -41.9990   -30.5840    -0.2340 hc         1 RVS       0.046200
     38 H081       -47.0900   -31.2870     1.5240 ha         1 RVS       0.114000
     39 H091       -47.1400   -33.3360     0.1600 ha         1 RVS       0.094000
     40 H241       -53.4980   -28.2300     9.9500 h1         1 RVS       0.083700
     41 H252       -54.1360   -29.4390    12.0400 hc         1 RVS       0.076700
     42 H251       -52.7610   -30.6110    11.7850 hc         1 RVS       0.076700
     43 H261       -55.1080   -30.1310     9.7930 hc         1 RVS       0.076700
     44 H262       -53.7110   -31.2880     9.5660 hc         1 RVS       0.076700
     45 H131       -45.5780   -30.2140     3.9020 hn         1 RVS       0.368500
     46 H211       -49.5090   -29.6830     8.8280 hn         1 RVS       0.141000
     47 H231       -51.0200   -29.3890    10.3060 hn         1 RVS       0.310500
     48 C02        -43.0370   -29.9590     3.6490 c          1 RVS       0.715000
     49 C22        -51.4520   -29.3360     8.2970 c          1 RVS       0.660100
     50 O01        -43.7240   -30.8900     4.1540 o          1 RVS      -0.732000
     51 O29        -41.8980   -29.6020     4.0340 o          1 RVS      -0.732000
@<TRIPOS>BOND
     1     1     3 ar  
     2     1    10 ar  
     3     1    22 1   
     4     2     3 ar  
     5     2     4 ar  
     6     2    26 1   
     7     3    27 1   
     8     4     5 1   
     9     4     9 ar  
    10     5    21 1   
    11     5    25 2   
    12     6    11 1   
    13     6    15 1   
    14     6    21 1   
    15     6    28 1   
    16     7     8 ar  
    17     7    14 ar  
    18     7    29 1   
    19     8    17 ar  
    20     8    30 1   
    21     9    10 ar  
    22     9    31 1   
    23    10    32 1   
    24    11    12 1   
    25    11    33 1   
    26    11    48 1   
    27    12    13 1   
    28    12    34 1   
    29    12    35 1   
    30    13    14 1   
    31    13    36 1   
    32    13    37 1   
    33    14    15 ar  
    34    15    16 ar  
    35    16    17 ar  
    36    16    38 1   
    37    17    39 1   
    38    18    19 1   
    39    18    20 1   
    40    18    23 1   
    41    18    40 1   
    42    19    20 1   
    43    19    41 1   
    44    19    42 1   
    45    20    43 1   
    46    20    44 1   
    47    21    45 1   
    48    22    46 1   
    49    22    49 1   
    50    23    47 1   
    51    23    49 1   
    52    24    49 2   
    53    48    50 1   
    54    48    51 1   
@<TRIPOS>SUBSTRUCTURE
     1 RVS         1 TEMP              0 ****  ****    0 ROOT
