@<TRIPOS>MOLECULE
RVU
   47    50     1     0     0
SMALL
No Charge or Current Charge


@<TRIPOS>ATOM
      1 C8         -66.0070    26.0190     0.4000 ca         1 RVU       0.132100
      2 C9         -66.5880    26.6660     1.5150 ca         1 RVU      -0.185000
      3 C1         -64.0450    23.7540    -2.7300 c5         1 RVU      -0.157700
      4 C2         -63.2830    23.9230    -4.0670 c          1 RVU       0.620100
      5 C3         -63.7980    23.5930    -6.4450 cc         1 RVU       0.479400
      6 C4         -64.0140    25.0930    -1.9280 c5         1 RVU       0.118000
      7 C5         -63.8600    23.2410    -0.3880 c          1 RVU       0.569000
      8 C6         -63.2910    22.8170    -1.7390 c5         1 RVU      -0.155400
      9 C10        -65.9440    26.6540     2.7620 ca         1 RVU      -0.071000
     10 C11        -64.7310    25.9660     2.9200 ca         1 RVU      -0.100300
     11 C12        -64.1490    25.3280     1.8110 ca         1 RVU      -0.067000
     12 C13        -64.0530    25.9060     4.2810 c3         1 RVU      -0.040800
     13 C14        -67.9840    26.5060    -1.0120 c3         1 RVU       0.146900
     14 C15        -62.7230    23.8250    -8.3580 ca         1 RVU      -0.071200
     15 C16        -63.9970    23.3840    -8.5760 ca         1 RVU       0.087400
     16 C17        -61.8090    24.0620    -9.3910 ca         1 RVU      -0.107000
     17 C18        -62.2470    23.8270   -10.7120 ca         1 RVU      -0.100000
     18 C19        -63.5660    23.3700   -10.9550 ca         1 RVU      -0.128000
     19 C20        -64.4560    23.1440    -9.8800 ca         1 RVU      -0.059000
     20 C7         -64.7270    25.4140     0.5260 ca         1 RVU      -0.071000
     21 N1         -64.1010    23.5810    -5.1130 ns         1 RVU      -0.408400
     22 N2         -64.1550    24.6090    -0.5300 n          1 RVU      -0.238400
     23 N3         -62.5870    23.9600    -7.0120 na         1 RVU      -0.323600
     24 N4         -64.6920    23.2320    -7.3770 nd         1 RVU      -0.626100
     25 O2         -66.6770    25.9420    -0.8080 os         1 RVU      -0.348100
     26 O3         -62.1260    24.2980    -4.2010 o          1 RVU      -0.590100
     27 H91        -67.5480    27.1670     1.4410 ha         1 RVU       0.119000
     28 H11        -65.0770    23.4150    -2.8860 hc         1 RVU       0.078700
     29 H41        -63.0540    25.6150    -2.0400 h1         1 RVU       0.062200
     30 H42        -64.8030    25.7830    -2.2470 h1         1 RVU       0.062200
     31 H62        -63.4110    21.7420    -1.9110 hc         1 RVU       0.093200
     32 H61        -62.2250    23.0750    -1.7400 hc         1 RVU       0.093200
     33 H101       -66.4050    27.1540     3.6110 ha         1 RVU       0.114000
     34 H121       -63.2160    24.7840     1.9430 ha         1 RVU       0.126000
     35 H131       -63.3050    26.7020     4.3800 hc         1 RVU       0.043367
     36 H133       -64.7770    26.0240     5.0970 hc         1 RVU       0.043367
     37 H132       -63.5440    24.9470     4.4310 hc         1 RVU       0.043367
     38 H141       -68.3210    26.3210    -2.0390 h1         1 RVU       0.043700
     39 H142       -68.7150    26.0560    -0.3290 h1         1 RVU       0.043700
     40 H143       -67.9710    27.5920    -0.8500 h1         1 RVU       0.043700
     41 H171       -60.8000    24.4130    -9.1870 ha         1 RVU       0.120000
     42 H181       -61.5700    23.9980   -11.5460 ha         1 RVU       0.114000
     43 H191       -63.8970    23.1910   -11.9760 ha         1 RVU       0.114000
     44 H201       -65.4690    22.7930   -10.0560 ha         1 RVU       0.128000
     45 H12        -65.0320    23.2830    -4.8680 hn         1 RVU       0.352500
     46 H31        -61.7710    24.2670    -6.4970 hn         1 RVU       0.388000
     47 O1         -64.2190    22.5340     0.5450 o          1 RVU      -0.530000
@<TRIPOS>BOND
     1     1     2 ar  
     2     1    20 ar  
     3     1    25 1   
     4     2     9 ar  
     5     2    27 1   
     6     3     4 1   
     7     3     6 1   
     8     3     8 1   
     9     3    28 1   
    10     4    21 1   
    11     4    26 2   
    12     5    21 1   
    13     5    23 1   
    14     5    24 2   
    15     6    22 1   
    16     6    29 1   
    17     6    30 1   
    18     7     8 1   
    19     7    22 1   
    20     7    47 2   
    21     8    31 1   
    22     8    32 1   
    23     9    10 ar  
    24     9    33 1   
    25    10    11 ar  
    26    10    12 1   
    27    11    20 ar  
    28    11    34 1   
    29    12    35 1   
    30    12    36 1   
    31    12    37 1   
    32    13    25 1   
    33    13    38 1   
    34    13    39 1   
    35    13    40 1   
    36    14    15 ar  
    37    14    16 ar  
    38    14    23 1   
    39    15    19 ar  
    40    15    24 1   
    41    16    17 ar  
    42    16    41 1   
    43    17    18 ar  
    44    17    42 1   
    45    18    19 ar  
    46    18    43 1   
    47    19    44 1   
    48    20    22 1   
    49    21    45 1   
    50    23    46 1   
@<TRIPOS>SUBSTRUCTURE
     1 RVU         1 TEMP              0 ****  ****    0 ROOT
