@<TRIPOS>MOLECULE
RVU
   47    50     1     0     0
SMALL
abcg2


@<TRIPOS>ATOM
      1 C8         -66.2820    25.6270     0.4810 ca         1 RVU       0.132100
      2 C9         -66.5750    26.5900     1.4450 ca         1 RVU      -0.185000
      3 C1         -64.4840    23.1310    -2.7000 c5         1 RVU      -0.157700
      4 C2         -63.6660    23.2330    -3.9700 c          1 RVU       0.620100
      5 C3         -63.9110    23.6820    -6.3690 cc         1 RVU       0.479400
      6 C4         -64.5990    24.5090    -2.0060 c5         1 RVU       0.118000
      7 C5         -64.2300    22.8980    -0.3150 c          1 RVU       0.569000
      8 C6         -63.8650    22.2340    -1.6290 c5         1 RVU      -0.155400
      9 C10        -65.5810    27.0320     2.3140 ca         1 RVU      -0.071000
     10 C11        -64.2790    26.5440     2.2490 ca         1 RVU      -0.100300
     11 C12        -63.9960    25.5880     1.2730 ca         1 RVU      -0.067000
     12 C13        -63.2010    27.0490     3.1720 c3         1 RVU      -0.040800
     13 C14        -68.5180    25.6130    -0.3640 c3         1 RVU       0.146900
     14 C15        -62.4760    23.8970    -8.0250 ca         1 RVU      -0.071200
     15 C16        -63.8070    24.0610    -8.4720 ca         1 RVU       0.087400
     16 C17        -61.3850    23.9840    -8.8800 ca         1 RVU      -0.107000
     17 C18        -61.6570    24.2450   -10.2190 ca         1 RVU      -0.100000
     18 C19        -62.9720    24.4100   -10.6790 ca         1 RVU      -0.128000
     19 C20        -64.0590    24.3220    -9.8180 ca         1 RVU      -0.059000
     20 C7         -64.9710    25.1300     0.4000 ca         1 RVU      -0.071000
     21 N1         -64.4030    23.4790    -5.0950 ns         1 RVU      -0.408400
     22 N2         -64.6540    24.1610    -0.5870 n          1 RVU      -0.238400
     23 N3         -62.5820    23.6550    -6.6670 na         1 RVU      -0.323600
     24 N4         -64.6850    23.9190    -7.4040 nd         1 RVU      -0.626100
     25 O2         -67.1820    25.1110    -0.3960 os         1 RVU      -0.348100
     26 O3         -62.4450    23.1460    -3.9870 o          1 RVU      -0.590100
     27 H91        -67.5730    26.9910     1.5330 ha         1 RVU       0.119000
     28 H11        -65.4890    22.7810    -2.9390 hc         1 RVU       0.078700
     29 H41        -63.7250    25.1370    -2.2030 h1         1 RVU       0.062200
     30 H42        -65.4960    25.0450    -2.3060 h1         1 RVU       0.062200
     31 H62        -64.2250    21.2070    -1.6580 hc         1 RVU       0.093200
     32 H61        -62.7760    22.2200    -1.7100 hc         1 RVU       0.093200
     33 H101       -65.8350    27.7750     3.0610 ha         1 RVU       0.114000
     34 H121       -62.9950    25.1850     1.1810 ha         1 RVU       0.126000
     35 H131       -62.6030    27.8270     2.6880 hc         1 RVU       0.043367
     36 H133       -63.6290    27.4790     4.0770 hc         1 RVU       0.043367
     37 H132       -62.5190    26.2470     3.4600 hc         1 RVU       0.043367
     38 H141       -69.0520    25.0820    -1.1480 h1         1 RVU       0.043700
     39 H142       -68.9880    25.4130     0.6020 h1         1 RVU       0.043700
     40 H143       -68.5380    26.6860    -0.5650 h1         1 RVU       0.043700
     41 H171       -60.3720    23.8550    -8.5220 ha         1 RVU       0.120000
     42 H181       -60.8360    24.3200   -10.9200 ha         1 RVU       0.114000
     43 H191       -63.1420    24.6110   -11.7290 ha         1 RVU       0.114000
     44 H201       -65.0730    24.4500   -10.1760 ha         1 RVU       0.128000
     45 H12        -65.4090    23.5310    -5.0160 hn         1 RVU       0.352500
     46 H31        -61.8560    23.4830    -5.9880 hn         1 RVU       0.388000
     47 O1         -64.1430    22.3940     0.7970 o          1 RVU      -0.530000
@<TRIPOS>BOND
     1     1     2 ar  
     2     1    20 ar  
     3     1    25 1   
     4     2     9 ar  
     5     2    27 1   
     6     3     4 1   
     7     3     6 1   
     8     3     8 1   
     9     3    28 1   
    10     4    21 1   
    11     4    26 2   
    12     5    21 1   
    13     5    23 1   
    14     5    24 2   
    15     6    22 1   
    16     6    29 1   
    17     6    30 1   
    18     7     8 1   
    19     7    22 1   
    20     7    47 2   
    21     8    31 1   
    22     8    32 1   
    23     9    10 ar  
    24     9    33 1   
    25    10    11 ar  
    26    10    12 1   
    27    11    20 ar  
    28    11    34 1   
    29    12    35 1   
    30    12    36 1   
    31    12    37 1   
    32    13    25 1   
    33    13    38 1   
    34    13    39 1   
    35    13    40 1   
    36    14    15 ar  
    37    14    16 ar  
    38    14    23 1   
    39    15    19 ar  
    40    15    24 1   
    41    16    17 ar  
    42    16    41 1   
    43    17    18 ar  
    44    17    42 1   
    45    18    19 ar  
    46    18    43 1   
    47    19    44 1   
    48    20    22 1   
    49    21    45 1   
    50    23    46 1   
@<TRIPOS>SUBSTRUCTURE
     1 RVU         1 TEMP              0 ****  ****    0 ROOT
