@<TRIPOS>MOLECULE
RVV
   17    17     1     0     0
SMALL
bcc


@<TRIPOS>ATOM
      1 C01         -5.4520     2.3250    28.4170 c3         1 RVV      -0.052800
      2 C02         -5.5450     2.1020    26.9390 ca         1 RVV      -0.034300
      3 C03         -4.8420     2.8960    26.0430 ca         1 RVV      -0.251300
      4 C04         -4.9630     2.6830    24.6710 ca         1 RVV       0.421600
      5 C06         -6.4180     0.9630    25.0270 ca         1 RVV       0.408200
      6 C07         -6.3550     1.1040    26.4020 ca         1 RVV      -0.255300
      7 C08         -4.1940     3.5300    23.7010 c3         1 RVV      -0.146400
      8 N05         -5.7440     1.7260    24.1730 nb         1 RVV      -0.676000
      9 H013        -6.1290     3.1240    28.7250 hc         1 RVV       0.047033
     10 H011        -5.7270     1.4310    28.9750 hc         1 RVV       0.047033
     11 H012        -4.4460     2.6210    28.7140 hc         1 RVV       0.047033
     12 H031        -4.1950     3.6870    26.4050 ha         1 RVV       0.137000
     13 H061        -7.0450     0.1930    24.5910 h4         1 RVV       0.016100
     14 H071        -6.9280     0.4470    27.0430 ha         1 RVV       0.139000
     15 H082        -4.4830     3.3040    22.6770 hc         1 RVV       0.050700
     16 H081        -4.3640     4.5920    23.8830 hc         1 RVV       0.050700
     17 H083        -3.1210     3.3570    23.7980 hc         1 RVV       0.050700
@<TRIPOS>BOND
     1     1     2 1   
     2     1     9 1   
     3     1    10 1   
     4     1    11 1   
     5     2     3 ar  
     6     2     6 ar  
     7     3     4 ar  
     8     3    12 1   
     9     4     7 1   
    10     4     8 ar  
    11     5     6 ar  
    12     5     8 ar  
    13     5    13 1   
    14     6    14 1   
    15     7    15 1   
    16     7    16 1   
    17     7    17 1   
@<TRIPOS>SUBSTRUCTURE
     1 RVV         1 TEMP              0 ****  ****    0 ROOT
