@<TRIPOS>MOLECULE
RVV
   17    17     1     0     0
SMALL
No Charge or Current Charge


@<TRIPOS>ATOM
      1 C01         -5.5080     2.3630    28.4490 c3         1 RVV      -0.052800
      2 C02         -5.5670     2.1210    26.9490 ca         1 RVV      -0.034300
      3 C03         -4.8510     2.9340    26.0530 ca         1 RVV      -0.168000
      4 C04         -4.9350     2.6800    24.6710 ca         1 RVV       0.356300
      5 C06         -6.3710     0.8950    25.0180 ca         1 RVV       0.342900
      6 C07         -6.3430     1.0820    26.4100 ca         1 RVV      -0.172000
      7 C08         -4.1740     3.5300    23.6720 c3         1 RVV      -0.146400
      8 N05         -5.6800     1.6760    24.1560 nb         1 RVV      -0.676000
      9 H013        -6.2830     3.0720    28.7600 hc         1 RVV       0.047033
     10 H011        -5.6590     1.4330    29.0100 hc         1 RVV       0.047033
     11 H012        -4.5370     2.7750    28.7490 hc         1 RVV       0.047033
     12 H031        -4.2370     3.7510    26.4200 ha         1 RVV       0.119000
     13 H061        -6.9650     0.0950    24.5780 h4         1 RVV       0.016100
     14 H071        -6.9200     0.4240    27.0530 ha         1 RVV       0.121000
     15 H082        -4.7620     3.7020    22.7630 hc         1 RVV       0.050700
     16 H081        -3.9230     4.5110    24.0930 hc         1 RVV       0.050700
     17 H083        -3.2370     3.0400    23.3810 hc         1 RVV       0.050700
@<TRIPOS>BOND
     1     1     2 1   
     2     1     9 1   
     3     1    10 1   
     4     1    11 1   
     5     2     3 ar  
     6     2     6 ar  
     7     3     4 ar  
     8     3    12 1   
     9     4     7 1   
    10     4     8 ar  
    11     5     6 ar  
    12     5     8 ar  
    13     5    13 1   
    14     6    14 1   
    15     7    15 1   
    16     7    16 1   
    17     7    17 1   
@<TRIPOS>SUBSTRUCTURE
     1 RVV         1 TEMP              0 ****  ****    0 ROOT
