@<TRIPOS>MOLECULE
RVW
   24    24     1     0     0
SMALL
No Charge or Current Charge


@<TRIPOS>ATOM
      1 C4          18.5420   -16.2950    -3.8230 c6         1 RVW       0.113300
      2 C5          17.8000   -14.9980    -4.3060 c6         1 RVW       0.353300
      3 C6          16.7100   -16.0090    -7.7970 c3         1 RVW       0.172600
      4 C1          17.5890   -17.4980    -5.8640 c6         1 RVW       0.146300
      5 C2          17.7810   -17.5580    -4.3220 c6         1 RVW       0.099300
      6 C3          16.8590   -16.1730    -6.2480 c6         1 RVW       0.161300
      7 O1          17.6050   -15.0310    -5.7400 os         1 RVW      -0.408000
      8 O2          16.8700   -18.6650    -6.2970 oh         1 RVW      -0.714000
      9 O3          18.4910   -18.7530    -3.9460 oh         1 RVW      -0.672000
     10 O4          18.6960   -16.3480    -2.3810 oh         1 RVW      -0.716000
     11 O5          16.0990   -14.7610    -8.1840 oh         1 RVW      -0.705000
     12 S1          16.1400   -14.7930    -3.4530 sh         1 RVW      -0.495800
     13 H9          19.5350   -16.2960    -4.2980 h1         1 RVW       0.056700
     14 H10         18.4160   -14.1230    -4.0490 h2         1 RVW       0.097700
     15 H11         16.1130   -16.8490    -8.1760 h1         1 RVW       0.035200
     16 H12         17.7100   -16.0930    -8.2450 h1         1 RVW       0.035200
     17 H6          18.5850   -17.4850    -6.3330 h1         1 RVW       0.048700
     18 H7          16.7840   -17.5600    -3.8540 h1         1 RVW       0.078700
     19 H8          15.8480   -16.1740    -5.8150 h1         1 RVW       0.084700
     20 H2          17.2310   -19.3970    -5.7380 ho         1 RVW       0.522000
     21 H3          18.8060   -18.5830    -3.0270 ho         1 RVW       0.455000
     22 H4          19.4750   -15.7910    -2.1410 ho         1 RVW       0.514000
     23 H5          16.1030   -14.7320    -9.1690 ho         1 RVW       0.504000
     24 H1          16.6380   -15.0370    -2.2150 hs         1 RVW       0.233800
@<TRIPOS>BOND
     1     1     2 1   
     2     1     5 1   
     3     1    10 1   
     4     1    13 1   
     5     2     7 1   
     6     2    12 1   
     7     2    14 1   
     8     3     6 1   
     9     3    11 1   
    10     3    15 1   
    11     3    16 1   
    12     4     5 1   
    13     4     6 1   
    14     4     8 1   
    15     4    17 1   
    16     5     9 1   
    17     5    18 1   
    18     6     7 1   
    19     6    19 1   
    20     8    20 1   
    21     9    21 1   
    22    10    22 1   
    23    11    23 1   
    24    12    24 1   
@<TRIPOS>SUBSTRUCTURE
     1 RVW         1 TEMP              0 ****  ****    0 ROOT
