@<TRIPOS>MOLECULE
RVW
   24    24     1     0     0
SMALL
abcg2


@<TRIPOS>ATOM
      1 C4          18.5290   -16.2080    -3.8530 c6         1 RVW       0.113300
      2 C5          17.7270   -15.0020    -4.3340 c6         1 RVW       0.353300
      3 C6          16.7790   -16.0480    -7.7090 c3         1 RVW       0.172600
      4 C1          17.6430   -17.4680    -5.8190 c6         1 RVW       0.146300
      5 C2          17.8760   -17.5040    -4.3140 c6         1 RVW       0.099300
      6 C3          16.8740   -16.2050    -6.2050 c6         1 RVW       0.161300
      7 O1          17.5320   -15.0520    -5.7070 os         1 RVW      -0.408000
      8 O2          16.8930   -18.5770    -6.2500 oh         1 RVW      -0.714000
      9 O3          18.6910   -18.6250    -4.0380 oh         1 RVW      -0.672000
     10 O4          18.6450   -16.1370    -2.4550 oh         1 RVW      -0.716000
     11 O5          15.9690   -14.9360    -8.0010 oh         1 RVW      -0.705000
     12 S1          16.0950   -14.8290    -3.4730 sh         1 RVW      -0.495800
     13 H9          19.5160   -16.1280    -4.3300 h1         1 RVW       0.056700
     14 H10         18.2830   -14.0880    -4.1260 h2         1 RVW       0.097700
     15 H11         16.3670   -16.9720    -8.1260 h1         1 RVW       0.035200
     16 H12         17.7940   -15.9330    -8.1150 h1         1 RVW       0.035200
     17 H6          18.6240   -17.4380    -6.3210 h1         1 RVW       0.048700
     18 H7          16.9010   -17.6060    -3.8160 h1         1 RVW       0.078700
     19 H8          15.8540   -16.2720    -5.7940 h1         1 RVW       0.084700
     20 H2          17.3610   -19.3740    -5.9770 ho         1 RVW       0.522000
     21 H3          18.5230   -18.9170    -3.1380 ho         1 RVW       0.455000
     22 H4          19.4530   -16.5870    -2.1910 ho         1 RVW       0.514000
     23 H5          15.9190   -14.8490    -8.9570 ho         1 RVW       0.504000
     24 H1          16.5770   -14.2460    -2.3720 hs         1 RVW       0.233800
@<TRIPOS>BOND
     1     1     2 1   
     2     1     5 1   
     3     1    10 1   
     4     1    13 1   
     5     2     7 1   
     6     2    12 1   
     7     2    14 1   
     8     3     6 1   
     9     3    11 1   
    10     3    15 1   
    11     3    16 1   
    12     4     5 1   
    13     4     6 1   
    14     4     8 1   
    15     4    17 1   
    16     5     9 1   
    17     5    18 1   
    18     6     7 1   
    19     6    19 1   
    20     8    20 1   
    21     9    21 1   
    22    10    22 1   
    23    11    23 1   
    24    12    24 1   
@<TRIPOS>SUBSTRUCTURE
     1 RVW         1 TEMP              0 ****  ****    0 ROOT
