@<TRIPOS>MOLECULE
RVX
   32    31     1     0     0
SMALL
bcc


@<TRIPOS>ATOM
      1 N            7.6580     5.1300   -37.0650 n8         1 RVX      -0.887800
      2 CA           8.2470     3.8900   -36.5730 c3         1 RVX      -0.002500
      3 C            9.7690     4.0980   -36.3710 c          1 RVX       0.942600
      4 O           10.0850     5.1270   -35.7410 o          1 RVX      -0.839800
      5 CB           7.9070     2.7950   -37.5660 c3         1 RVX       0.234400
      6 OG           8.1440     1.5070   -36.9940 os         1 RVX      -0.612200
      7 P1           9.1000     0.3870   -37.6300 p5         1 RVX       1.460300
      8 O1           9.6140     0.6930   -38.9910 o          1 RVX      -0.816300
      9 C1          10.3170    -0.0090   -36.3750 c3         1 RVX      -0.305300
     10 O2           8.1780    -0.9330   -37.5510 os         1 RVX      -0.588200
     11 C2           6.9880    -1.0470   -38.3350 c3         1 RVX       0.205400
     12 C3           5.8730    -1.6670   -37.5090 c3         1 RVX      -0.075700
     13 C5           4.6620    -1.8920   -38.4080 c3         1 RVX      -0.085600
     14 C4           5.5060    -0.8050   -36.3060 c3         1 RVX      -0.085600
     15 OXT         10.5410     3.2350   -36.8310 o          1 RVX      -0.839800
     16 HN1          6.6630     5.1350   -36.8830 hn         1 RVX       0.328300
     17 HN2          8.0510     5.8950   -36.5320 hn         1 RVX       0.328300
     18 HA           7.8340     3.5930   -35.5930 h1         1 RVX       0.014700
     19 HB1C         6.8420     2.8360   -37.8130 h1         1 RVX       0.032200
     20 HB2C         8.4660     2.9270   -38.4930 h1         1 RVX       0.032200
     21 H11C        10.8940    -0.8810   -36.6810 hc         1 RVX       0.084033
     22 H12C        10.9870     0.8380   -36.2550 hc         1 RVX       0.084033
     23 H13C         9.8430    -0.2210   -35.4180 hc         1 RVX       0.084033
     24 H21C         6.6590    -0.0710   -38.7100 h1         1 RVX       0.030700
     25 H22C         7.2090    -1.6710   -39.2060 h1         1 RVX       0.030700
     26 H3           6.2180    -2.6430   -37.1500 hc         1 RVX       0.053700
     27 H51C         3.8540    -2.3720   -37.8550 hc         1 RVX       0.032200
     28 H52C         4.2800    -0.9450   -38.7960 hc         1 RVX       0.032200
     29 H53C         4.9040    -2.5290   -39.2600 hc         1 RVX       0.032200
     30 H41C         4.6820    -1.2540   -35.7490 hc         1 RVX       0.032200
     31 H42C         6.3390    -0.6830   -35.6150 hc         1 RVX       0.032200
     32 H43C         5.1860     0.1900   -36.6260 hc         1 RVX       0.032200
@<TRIPOS>BOND
     1     1     2 1   
     2     1    16 1   
     3     1    17 1   
     4     2     3 1   
     5     2     5 1   
     6     2    18 1   
     7     3     4 1   
     8     3    15 1   
     9     5     6 1   
    10     5    19 1   
    11     5    20 1   
    12     6     7 1   
    13     7     8 2   
    14     7     9 1   
    15     7    10 1   
    16     9    21 1   
    17     9    22 1   
    18     9    23 1   
    19    10    11 1   
    20    11    12 1   
    21    11    24 1   
    22    11    25 1   
    23    12    13 1   
    24    12    14 1   
    25    12    26 1   
    26    13    27 1   
    27    13    28 1   
    28    13    29 1   
    29    14    30 1   
    30    14    31 1   
    31    14    32 1   
@<TRIPOS>SUBSTRUCTURE
     1 RVX         1 TEMP              0 ****  ****    0 ROOT
