@<TRIPOS>MOLECULE
RVX
   32    31     1     0     0
SMALL
No Charge or Current Charge


@<TRIPOS>ATOM
      1 N            8.7160     4.3950   -35.8570 n8         1 RVX      -0.998200
      2 CA           8.3040     3.6990   -37.1450 c3         1 RVX      -0.002500
      3 C            7.6740     4.6160   -38.2690 c          1 RVX       0.732000
      4 O            8.4390     5.2550   -38.9810 o          1 RVX      -0.734500
      5 CB           7.3820     2.4680   -36.8800 c3         1 RVX       0.257600
      6 OG           8.0330     1.5480   -35.9810 os         1 RVX      -0.635400
      7 P1           9.1250     0.4820   -36.5110 p5         1 RVX       1.388800
      8 O1          10.0850     0.9250   -37.5590 o          1 RVX      -0.587000
      9 C1           9.9180    -0.0130   -34.9520 c3         1 RVX      -0.463100
     10 O2           8.2360    -0.8240   -36.8400 os         1 RVX      -0.611400
     11 C2           7.6010    -0.9690   -38.1160 c3         1 RVX       0.228600
     12 C3           6.1430    -1.4460   -37.8910 c3         1 RVX      -0.075700
     13 C5           5.4670    -1.8160   -39.2320 c3         1 RVX      -0.085600
     14 C4           5.2830    -0.4280   -37.1030 c3         1 RVX      -0.085600
     15 OXT          6.4570     4.6510   -38.4040 o          1 RVX      -0.734500
     16 HN1          9.0840     3.6910   -35.2060 hn         1 RVX       0.383500
     17 HN2          9.5150     5.0130   -36.0440 hn         1 RVX       0.383500
     18 HA           9.2340     3.3140   -37.5810 h1         1 RVX       0.014700
     19 HB1C         6.4340     2.8070   -36.4410 h1         1 RVX       0.032200
     20 HB2C         7.1470     1.9820   -37.8360 h1         1 RVX       0.032200
     21 H11C        10.5990    -0.8460   -35.1510 hc         1 RVX       0.084033
     22 H12C        10.4730     0.8400   -34.5510 hc         1 RVX       0.084033
     23 H13C         9.1420    -0.3230   -34.2450 hc         1 RVX       0.084033
     24 H21C         7.5970    -0.0290   -38.6830 h1         1 RVX       0.030700
     25 H22C         8.1380    -1.7170   -38.7140 h1         1 RVX       0.030700
     26 H3           6.1930    -2.3650   -37.2930 hc         1 RVX       0.053700
     27 H51C         4.4580    -2.2110   -39.0620 hc         1 RVX       0.032200
     28 H52C         5.3870    -0.9380   -39.8840 hc         1 RVX       0.032200
     29 H53C         6.0460    -2.5840   -39.7590 hc         1 RVX       0.032200
     30 H41C         4.2750    -0.8260   -36.9330 hc         1 RVX       0.032200
     31 H42C         5.7250    -0.2140   -36.1220 hc         1 RVX       0.032200
     32 H43C         5.1880     0.5140   -37.6550 hc         1 RVX       0.032200
@<TRIPOS>BOND
     1     1     2 1   
     2     1    16 1   
     3     1    17 1   
     4     2     3 1   
     5     2     5 1   
     6     2    18 1   
     7     3     4 1   
     8     3    15 1   
     9     5     6 1   
    10     5    19 1   
    11     5    20 1   
    12     6     7 1   
    13     7     8 2   
    14     7     9 1   
    15     7    10 1   
    16     9    21 1   
    17     9    22 1   
    18     9    23 1   
    19    10    11 1   
    20    11    12 1   
    21    11    24 1   
    22    11    25 1   
    23    12    13 1   
    24    12    14 1   
    25    12    26 1   
    26    13    27 1   
    27    13    28 1   
    28    13    29 1   
    29    14    30 1   
    30    14    31 1   
    31    14    32 1   
@<TRIPOS>SUBSTRUCTURE
     1 RVX         1 TEMP              0 ****  ****    0 ROOT
