@<TRIPOS>MOLECULE
RVY
   34    36     1     0     0
SMALL
abcg2


@<TRIPOS>ATOM
      1 N1          17.4940   -12.3430   -12.0290 na         1 RVY       0.212000
      2 N3          18.5050   -12.9970   -13.7940 nc         1 RVY      -0.348000
      3 C4          17.1680   -13.1610   -14.0060 cc         1 RVY       0.187300
      4 C5          16.5130   -12.7420   -12.8730 cd         1 RVY      -0.188000
      5 C6          17.3710   -11.8110   -10.7160 ca         1 RVY      -0.001200
      6 C7          18.3590   -12.0770    -9.7730 ca         1 RVY      -0.100500
      7 C8          18.2350   -11.5460    -8.4950 ca         1 RVY      -0.097000
      8 C10         16.1470   -10.5160    -9.1110 ca         1 RVY      -0.097000
      9 C13         15.3740   -11.5010   -15.7160 c          1 RVY       0.575100
     10 N           17.5020   -11.7430   -16.6050 ns         1 RVY      -0.505900
     11 C           17.4650   -10.4510   -16.2190 c          1 RVY       0.573000
     12 O           18.3730    -9.6390   -16.3440 o          1 RVY      -0.539000
     13 C1          16.3200   -12.5500   -16.3270 c5         1 RVY       0.019400
     14 C11         16.2660   -11.0290   -10.3960 ca         1 RVY      -0.100500
     15 C12         16.1030   -10.1850   -15.6070 c5         1 RVY      -0.278400
     16 C2          15.7230   -13.1500   -17.6000 c3         1 RVY      -0.091100
     17 C3          16.6130   -13.6660   -15.2930 c3         1 RVY      -0.092700
     18 C9          17.1300   -10.7690    -8.1590 ca         1 RVY      -0.102000
     19 N2          18.7030   -12.5060   -12.6040 nd         1 RVY      -0.183800
     20 H1          15.4710   -12.7150   -12.6090 h4         1 RVY       0.175000
     21 H2          19.2040   -12.6950   -10.0380 ha         1 RVY       0.133500
     22 H3          19.0010   -11.7500    -7.7580 ha         1 RVY       0.123000
     23 H4          15.2880    -9.9070    -8.8580 ha         1 RVY       0.123000
     24 H5          18.3360   -12.1420   -17.0120 hn         1 RVY       0.338500
     25 H6          15.5160   -10.8130   -11.1450 ha         1 RVY       0.133500
     26 H7          16.1990    -9.8870   -14.5590 hc         1 RVY       0.104700
     27 H8          15.5750    -9.3870   -16.1310 hc         1 RVY       0.104700
     28 H9          14.8050   -13.6870   -17.3630 hc         1 RVY       0.053033
     29 H10         15.5010   -12.3670   -18.3260 hc         1 RVY       0.053033
     30 H11         16.4330   -13.8500   -18.0430 hc         1 RVY       0.053033
     31 H12         15.6820   -14.2040   -15.1140 hc         1 RVY       0.070700
     32 H13         17.3180   -14.3630   -15.7470 hc         1 RVY       0.070700
     33 H14         17.0360   -10.3630    -7.1600 ha         1 RVY       0.122000
     34 O1          14.2390   -11.7310   -15.3810 o          1 RVY      -0.501100
@<TRIPOS>BOND
     1     1     4 1   
     2     1     5 1   
     3     1    19 1   
     4     2     3 1   
     5     2    19 2   
     6     3     4 2   
     7     3    17 1   
     8     4    20 1   
     9     5     6 ar  
    10     5    14 ar  
    11     6     7 ar  
    12     6    21 1   
    13     7    18 ar  
    14     7    22 1   
    15     8    14 ar  
    16     8    18 ar  
    17     8    23 1   
    18     9    13 1   
    19     9    15 1   
    20     9    34 2   
    21    10    11 1   
    22    10    13 1   
    23    10    24 1   
    24    11    12 2   
    25    11    15 1   
    26    13    16 1   
    27    13    17 1   
    28    14    25 1   
    29    15    26 1   
    30    15    27 1   
    31    16    28 1   
    32    16    29 1   
    33    16    30 1   
    34    17    31 1   
    35    17    32 1   
    36    18    33 1   
@<TRIPOS>SUBSTRUCTURE
     1 RVY         1 TEMP              0 ****  ****    0 ROOT
