@<TRIPOS>MOLECULE
RVY
   34    36     1     0     0
SMALL
No Charge or Current Charge


@<TRIPOS>ATOM
      1 N1          17.7380   -12.1220   -12.0150 na         1 RVY       0.212000
      2 N3          18.6950   -12.6460   -13.8430 nc         1 RVY      -0.348000
      3 C4          17.3560   -12.9410   -13.9270 cc         1 RVY       0.187300
      4 C5          16.7140   -12.6370   -12.7650 cd         1 RVY      -0.188000
      5 C6          17.4650   -11.7350   -10.7030 ca         1 RVY      -0.001200
      6 C7          18.1730   -12.3170    -9.6320 ca         1 RVY      -0.100500
      7 C8          17.9030   -11.9270    -8.3080 ca         1 RVY      -0.097000
      8 C10         16.2170   -10.3650    -9.1100 ca         1 RVY      -0.097000
      9 C13         15.3530   -11.4270   -15.7940 c          1 RVY       0.575100
     10 N           17.4420   -11.7190   -16.7960 ns         1 RVY      -0.505900
     11 C           17.1620   -10.3810   -16.6830 c          1 RVY       0.573000
     12 O           17.4600    -9.5540   -17.5250 o          1 RVY      -0.539000
     13 C1          16.3330   -12.5460   -16.2970 c5         1 RVY       0.019400
     14 C11         16.4870   -10.7540   -10.4350 ca         1 RVY      -0.100500
     15 C12         16.2470   -10.2410   -15.4900 c5         1 RVY      -0.278400
     16 C2          15.6930   -13.3510   -17.4590 c3         1 RVY      -0.091100
     17 C3          16.7610   -13.5420   -15.1720 c3         1 RVY      -0.092700
     18 C9          16.9250   -10.9520    -8.0470 ca         1 RVY      -0.102000
     19 N2          18.9420   -12.1490   -12.6540 nd         1 RVY      -0.183800
     20 H1          15.6870   -12.7370   -12.4400 h4         1 RVY       0.175000
     21 H2          18.9320   -13.0730    -9.8260 ha         1 RVY       0.133500
     22 H3          18.4510   -12.3810    -7.4850 ha         1 RVY       0.123000
     23 H4          15.4620    -9.6090    -8.9090 ha         1 RVY       0.123000
     24 H5          18.0380   -11.9900   -17.5710 hn         1 RVY       0.338500
     25 H6          15.9380   -10.2900   -11.2520 ha         1 RVY       0.133500
     26 H7          16.8530   -10.4870   -14.6170 hc         1 RVY       0.104700
     27 H8          15.7310    -9.2790   -15.4360 hc         1 RVY       0.104700
     28 H9          14.8090   -13.9060   -17.1240 hc         1 RVY       0.053033
     29 H10         15.3770   -12.6890   -18.2750 hc         1 RVY       0.053033
     30 H11         16.4010   -14.0750   -17.8790 hc         1 RVY       0.053033
     31 H12         15.8910   -14.1400   -14.8740 hc         1 RVY       0.070700
     32 H13         17.4770   -14.2630   -15.5850 hc         1 RVY       0.070700
     33 H14         16.7160   -10.6510    -7.0230 ha         1 RVY       0.122000
     34 O1          14.1410   -11.3680   -15.9620 o          1 RVY      -0.501100
@<TRIPOS>BOND
     1     1     4 1   
     2     1     5 1   
     3     1    19 1   
     4     2     3 1   
     5     2    19 2   
     6     3     4 2   
     7     3    17 1   
     8     4    20 1   
     9     5     6 ar  
    10     5    14 ar  
    11     6     7 ar  
    12     6    21 1   
    13     7    18 ar  
    14     7    22 1   
    15     8    14 ar  
    16     8    18 ar  
    17     8    23 1   
    18     9    13 1   
    19     9    15 1   
    20     9    34 2   
    21    10    11 1   
    22    10    13 1   
    23    10    24 1   
    24    11    12 2   
    25    11    15 1   
    26    13    16 1   
    27    13    17 1   
    28    14    25 1   
    29    15    26 1   
    30    15    27 1   
    31    16    28 1   
    32    16    29 1   
    33    16    30 1   
    34    17    31 1   
    35    17    32 1   
    36    18    33 1   
@<TRIPOS>SUBSTRUCTURE
     1 RVY         1 TEMP              0 ****  ****    0 ROOT
