@<TRIPOS>MOLECULE
RVZ
   36    38     1     0     0
SMALL
No Charge or Current Charge


@<TRIPOS>ATOM
      1 C10         21.5700   178.7550   159.2830 ca         1 RVZ      -0.091000
      2 C13         22.6260   173.8420   157.8850 ca         1 RVZ      -0.146000
      3 C21         21.2610   171.1200   153.3350 cc         1 RVZ      -0.224000
      4 C22         20.5240   170.0610   153.8000 cd         1 RVZ       0.226900
      5 C02         20.4040   172.3620   158.3790 ca         1 RVZ       0.705900
      6 C03         20.3470   173.7250   158.6770 ca         1 RVZ      -0.180000
      7 C04         19.1440   174.2950   159.2070 cg         1 RVZ       0.338000
      8 C06         21.4980   174.5090   158.4280 cp         1 RVZ       0.149000
      9 C07         21.5230   175.9770   158.7230 cp         1 RVZ      -0.077000
     10 C08         21.5960   176.9270   157.6760 ca         1 RVZ      -0.078000
     11 C09         21.6190   178.3050   157.9530 ca         1 RVZ      -0.109000
     12 C11         21.4970   177.8270   160.3350 ca         1 RVZ      -0.109000
     13 C12         21.4740   176.4500   160.0580 ca         1 RVZ      -0.078000
     14 C16         22.5470   172.4610   157.6220 ca         1 RVZ       0.565300
     15 C18         23.1970   169.9900   156.2600 c3         1 RVZ       0.026300
     16 C19         22.2100   170.2320   155.1440 cc         1 RVZ       0.405800
     17 N01         19.4190   171.4780   158.5300 nv         1 RVZ      -1.058900
     18 N05         18.1580   174.7540   159.6280 n1         1 RVZ      -0.462000
     19 N15         24.8320   175.1270   157.3950 n1         1 RVZ      -0.449000
     20 N20         22.3390   171.2150   154.1930 na         1 RVZ      -0.291500
     21 N23         21.1220   169.5100   154.9160 nd         1 RVZ      -0.669000
     22 N24         21.4450   171.7340   157.8730 nb         1 RVZ      -0.778000
     23 S17         23.9430   171.5560   156.9410 ss         1 RVZ      -0.337300
     24 H1          21.5880   179.8220   159.4980 ha         1 RVZ       0.116000
     25 H3          19.6020   169.6640   153.3930 h4         1 RVZ       0.037100
     26 H4          21.6310   176.5900   156.6420 ha         1 RVZ       0.120500
     27 H5          21.6740   179.0230   157.1380 ha         1 RVZ       0.118000
     28 H6          21.4600   178.1750   161.3650 ha         1 RVZ       0.118000
     29 H7          21.4210   175.7400   160.8810 ha         1 RVZ       0.120500
     30 H8          22.6950   169.4490   157.0710 h1         1 RVZ       0.101700
     31 H9          24.0020   169.3500   155.8790 h1         1 RVZ       0.101700
     32 H10         19.6050   170.6150   158.0350 hn         1 RVZ       0.514500
     33 H11         18.4690   171.8240   158.4610 hn         1 RVZ       0.514500
     34 H12         23.1000   171.8820   154.1460 hn         1 RVZ       0.360000
     35 C14         23.8460   174.5440   157.6140 cg         1 RVZ       0.340000
     36 H2          21.1020   171.7790   152.4890 h4         1 RVZ       0.159000
@<TRIPOS>BOND
     1     1    11 ar  
     2     1    12 ar  
     3     1    24 1   
     4     2     8 ar  
     5     2    14 ar  
     6     2    35 1   
     7     3     4 2   
     8     3    20 1   
     9     3    36 1   
    10     4    21 1   
    11     4    25 1   
    12     5     6 ar  
    13     5    17 1   
    14     5    22 ar  
    15     6     7 1   
    16     6     8 ar  
    17     7    18 3   
    18     8     9 1   
    19     9    10 ar  
    20     9    13 ar  
    21    10    11 ar  
    22    10    26 1   
    23    11    27 1   
    24    12    13 ar  
    25    12    28 1   
    26    13    29 1   
    27    14    22 ar  
    28    14    23 1   
    29    15    16 1   
    30    15    23 1   
    31    15    30 1   
    32    15    31 1   
    33    16    20 1   
    34    16    21 2   
    35    17    32 1   
    36    17    33 1   
    37    19    35 3   
    38    20    34 1   
@<TRIPOS>SUBSTRUCTURE
     1 RVZ         1 TEMP              0 ****  ****    0 ROOT
