@<TRIPOS>MOLECULE
RVZ
   36    38     1     0     0
SMALL
bcc


@<TRIPOS>ATOM
      1 C10         21.6540   178.6680   159.5740 ca         1 RVZ      -0.109000
      2 C13         22.6130   174.0080   157.7210 ca         1 RVZ      -0.211300
      3 C21         21.0960   170.6360   153.3850 cc         1 RVZ      -0.256600
      4 C22         20.5420   169.5880   154.0620 cd         1 RVZ       0.292200
      5 C02         20.3490   172.4850   158.0510 ca         1 RVZ       0.771200
      6 C03         20.3480   173.8450   158.4700 ca         1 RVZ      -0.245300
      7 C04         19.1610   174.4100   158.9980 cg         1 RVZ       0.248800
      8 C06         21.4970   174.6100   158.3060 cp         1 RVZ       0.149000
      9 C07         21.5410   176.0180   158.7420 cp         1 RVZ      -0.077000
     10 C08         21.7930   177.0300   157.8180 ca         1 RVZ      -0.096000
     11 C09         21.8440   178.3520   158.2350 ca         1 RVZ      -0.127000
     12 C11         21.4050   177.6600   160.4960 ca         1 RVZ      -0.127000
     13 C12         21.3430   176.3380   160.0830 ca         1 RVZ      -0.096000
     14 C16         22.5160   172.6550   157.3330 ca         1 RVZ       0.630600
     15 C18         23.3120   170.2460   156.2340 c3         1 RVZ      -0.021600
     16 C19         22.2400   170.1920   155.2020 cc         1 RVZ       0.405800
     17 N01         19.2860   171.7020   158.1810 nv         1 RVZ      -0.948500
     18 N05         18.1680   174.8260   159.4110 n1         1 RVZ      -0.372800
     19 N15         24.8350   175.2600   157.4060 n1         1 RVZ      -0.359800
     20 N20         22.1800   171.0060   154.1280 na         1 RVZ      -0.291900
     21 N23         21.2620   169.3230   155.1940 nd         1 RVZ      -0.669000
     22 N24         21.4360   171.9380   157.4990 nb         1 RVZ      -0.778000
     23 S17         23.9190   171.9120   156.6020 ss         1 RVZ      -0.289400
     24 H1          21.7010   179.6990   159.8980 ha         1 RVZ       0.134000
     25 H3          19.6640   169.0190   153.7980 h4         1 RVZ       0.037100
     26 H4          21.9340   176.7890   156.7720 ha         1 RVZ       0.138500
     27 H5          22.0340   179.1340   157.5130 ha         1 RVZ       0.136000
     28 H6          21.2600   177.9020   161.5410 ha         1 RVZ       0.136000
     29 H7          21.1610   175.5540   160.8080 ha         1 RVZ       0.138500
     30 H8          22.9680   169.7610   157.1450 h1         1 RVZ       0.101700
     31 H9          24.2100   169.7210   155.8980 h1         1 RVZ       0.101700
     32 H10         19.3280   170.7560   157.8390 hn         1 RVZ       0.459300
     33 H11         18.4150   172.0190   158.5740 hn         1 RVZ       0.459300
     34 H12         22.8220   171.7530   153.9080 hn         1 RVZ       0.309700
     35 C14         23.8300   174.7130   157.5530 cg         1 RVZ       0.250800
     36 H2          20.8210   171.1410   152.4750 h4         1 RVZ       0.177000
@<TRIPOS>BOND
     1     1    11 ar  
     2     1    12 ar  
     3     1    24 1   
     4     2     8 ar  
     5     2    14 ar  
     6     2    35 1   
     7     3     4 2   
     8     3    20 1   
     9     3    36 1   
    10     4    21 1   
    11     4    25 1   
    12     5     6 ar  
    13     5    17 1   
    14     5    22 ar  
    15     6     7 1   
    16     6     8 ar  
    17     7    18 3   
    18     8     9 1   
    19     9    10 ar  
    20     9    13 ar  
    21    10    11 ar  
    22    10    26 1   
    23    11    27 1   
    24    12    13 ar  
    25    12    28 1   
    26    13    29 1   
    27    14    22 ar  
    28    14    23 1   
    29    15    16 1   
    30    15    23 1   
    31    15    30 1   
    32    15    31 1   
    33    16    20 1   
    34    16    21 2   
    35    17    32 1   
    36    17    33 1   
    37    19    35 3   
    38    20    34 1   
@<TRIPOS>SUBSTRUCTURE
     1 RVZ         1 TEMP              0 ****  ****    0 ROOT
