@<TRIPOS>MOLECULE
RW0
   58    61     1     0     0
SMALL
abcg2


@<TRIPOS>ATOM
      1 N1         -21.7910     6.6980    29.8850 n          1 RW0      -0.417800
      2 N3         -16.8370     3.6300    25.7260 nb         1 RW0      -0.657000
      3 C4         -23.9300     5.9900    28.8640 c3         1 RW0      -0.118100
      4 C5         -21.8340     4.5760    28.6600 c6         1 RW0      -0.110400
      5 C6         -20.3720     4.6470    28.2360 c          1 RW0       0.606100
      6 C7         -18.8570     4.7490    26.3710 ca         1 RW0      -0.110000
      7 C8         -18.0990     3.6230    26.1970 ca         1 RW0       0.363900
      8 C10        -16.9760     6.0160    25.5640 ca         1 RW0      -0.127000
      9 C13        -18.3830     8.4090    25.8200 ca         1 RW0      -0.016000
     10 C15        -18.3060     6.0100    26.0400 ca         1 RW0       0.032000
     11 C17        -21.9470     3.8790    29.9800 ca         1 RW0      -0.039300
     12 C20        -22.0590     2.6360    32.4710 ca         1 RW0      -0.106000
     13 C21        -21.8620     4.0020    32.3830 ca         1 RW0      -0.042000
     14 C22        -21.8080     4.6310    31.1430 ca         1 RW0      -0.124600
     15 C23        -21.5880     6.1000    31.0850 c          1 RW0       0.577600
     16 C2         -21.7030     8.1390    29.8260 c3         1 RW0       0.012000
     17 C1         -20.2960     8.7240    29.8010 c          1 RW0       0.591100
     18 O          -20.1450     9.9260    29.9670 o          1 RW0      -0.613100
     19 N          -19.2910     7.8840    29.5440 ns         1 RW0      -0.495900
     20 C          -17.9200     8.3240    29.4540 c3         1 RW0       0.097300
     21 C19        -22.1970     1.9020    31.3010 ca         1 RW0       0.141000
     22 CL         -22.4410     0.1930    31.3970 cl         1 RW0      -0.188000
     23 C18        -22.1420     2.5090    30.0570 ca         1 RW0      -0.106000
     24 C3         -22.4100     5.9940    28.7620 c6         1 RW0       0.131700
     25 O1         -19.4640     4.7480    29.0430 o          1 RW0      -0.569100
     26 N2         -20.1620     4.6400    26.9030 ns         1 RW0      -0.171000
     27 C9         -16.3010     4.7810    25.4290 ca         1 RW0       0.388900
     28 C14        -19.0000     7.2370    26.1560 ca         1 RW0      -0.113000
     29 C12        -17.0400     8.4000    25.3850 ca         1 RW0      -0.266500
     30 C11        -16.3420     7.2350    25.2480 ca         1 RW0       0.037000
     31 S          -16.2370     9.9410    24.9990 sy         1 RW0       1.055500
     32 O2         -17.1470    10.7460    24.1890 o          1 RW0      -0.519500
     33 O3         -14.9080     9.6410    24.4730 o          1 RW0      -0.519500
     34 C16        -16.0530    10.7200    26.5860 c3         1 RW0      -0.334100
     35 H1         -24.3050     7.0120    28.9200 hc         1 RW0       0.052033
     36 H2         -24.3670     5.5190    27.9840 hc         1 RW0       0.052033
     37 H3         -24.2760     5.4520    29.7470 hc         1 RW0       0.052033
     38 H4         -22.4090     4.0390    27.9000 hc         1 RW0       0.076700
     39 H5         -18.5160     2.6540    26.4500 h4         1 RW0       0.030100
     40 H6         -18.9250     9.3420    25.9030 ha         1 RW0       0.135000
     41 H7         -22.1040     2.1490    33.4350 ha         1 RW0       0.138000
     42 H8         -21.7510     4.5820    33.2890 ha         1 RW0       0.147000
     43 H9         -22.2350     8.6010    30.6590 h1         1 RW0       0.077700
     44 H10        -22.2030     8.4750    28.9150 h1         1 RW0       0.077700
     45 H11        -19.4740     6.8980    29.4440 hn         1 RW0       0.340500
     46 H12        -17.3130     7.4890    29.1160 h1         1 RW0       0.037033
     47 H13        -17.8090     9.1370    28.7360 h1         1 RW0       0.037033
     48 H14        -17.5360     8.6640    30.4170 h1         1 RW0       0.037033
     49 H15        -22.2480     1.9240    29.1520 ha         1 RW0       0.129000
     50 H16        -22.1280     6.5360    27.8570 h1         1 RW0       0.056700
     51 H17        -20.9440     4.5400    26.2710 hn         1 RW0       0.164000
     52 H18        -15.2800     4.7780    25.0590 h4         1 RW0       0.031100
     53 H19        -20.0240     7.2480    26.5030 ha         1 RW0       0.121000
     54 H20        -15.3140     7.2250    24.9070 ha         1 RW0       0.150000
     55 H21        -15.4460    10.0870    27.2290 h1         1 RW0       0.107033
     56 H22        -15.5560    11.6760    26.4210 h1         1 RW0       0.107033
     57 H23        -17.0320    10.8860    27.0310 h1         1 RW0       0.107033
     58 O4         -21.2380     6.7340    32.0690 o          1 RW0      -0.531000
@<TRIPOS>BOND
     1     1    15 1   
     2     1    16 1   
     3     1    24 1   
     4     2     7 ar  
     5     2    27 ar  
     6     3    24 1   
     7     3    35 1   
     8     3    36 1   
     9     3    37 1   
    10     4     5 1   
    11     4    11 1   
    12     4    24 1   
    13     4    38 1   
    14     5    25 2   
    15     5    26 1   
    16     6     7 ar  
    17     6    10 ar  
    18     6    26 1   
    19     7    39 1   
    20     8    10 ar  
    21     8    27 ar  
    22     8    30 ar  
    23     9    28 ar  
    24     9    29 ar  
    25     9    40 1   
    26    10    28 ar  
    27    11    14 ar  
    28    11    23 ar  
    29    12    13 ar  
    30    12    21 ar  
    31    12    41 1   
    32    13    14 ar  
    33    13    42 1   
    34    14    15 1   
    35    15    58 2   
    36    16    17 1   
    37    16    43 1   
    38    16    44 1   
    39    17    18 2   
    40    17    19 1   
    41    19    20 1   
    42    19    45 1   
    43    20    46 1   
    44    20    47 1   
    45    20    48 1   
    46    21    22 1   
    47    21    23 ar  
    48    23    49 1   
    49    24    50 1   
    50    26    51 1   
    51    27    52 1   
    52    28    53 1   
    53    29    30 ar  
    54    29    31 1   
    55    30    54 1   
    56    31    32 2   
    57    31    33 2   
    58    31    34 1   
    59    34    55 1   
    60    34    56 1   
    61    34    57 1   
@<TRIPOS>SUBSTRUCTURE
     1 RW0         1 TEMP              0 ****  ****    0 ROOT
