@<TRIPOS>MOLECULE
RW0
   58    61     1     0     0
SMALL
No Charge or Current Charge


@<TRIPOS>ATOM
      1 N1         -21.8560     6.4590    31.2310 n          1 RW0      -0.417800
      2 N3         -15.7750     6.2220    27.9680 nb         1 RW0      -0.657000
      3 C4         -23.5050     7.1430    29.4840 c3         1 RW0      -0.118100
      4 C5         -21.6170     5.4720    28.9550 c6         1 RW0      -0.110400
      5 C6         -20.0790     5.4090    28.8820 c          1 RW0       0.606100
      6 C7         -18.1530     6.2780    27.4150 ca         1 RW0      -0.110000
      7 C8         -17.0710     6.0150    28.2920 ca         1 RW0       0.363900
      8 C10        -16.5000     7.0110    25.7940 ca         1 RW0      -0.127000
      9 C13        -18.5060     7.6110    23.9190 ca         1 RW0      -0.016000
     10 C15        -17.8520     6.7950    26.1310 ca         1 RW0       0.032000
     11 C17        -22.2110     4.1750    29.5010 ca         1 RW0      -0.039300
     12 C20        -23.2330     1.7650    30.5280 ca         1 RW0      -0.106000
     13 C21        -22.9520     2.8350    31.3960 ca         1 RW0      -0.042000
     14 C22        -22.4460     4.0520    30.8870 ca         1 RW0      -0.124600
     15 C23        -22.1360     5.2000    31.8180 c          1 RW0       0.577600
     16 C2         -21.4810     7.6210    32.0950 c3         1 RW0       0.012000
     17 C1         -20.0040     7.6850    32.5480 c          1 RW0       0.591100
     18 O          -19.5910     8.5630    33.2950 o          1 RW0      -0.613100
     19 N          -19.1690     6.7020    32.0600 ns         1 RW0      -0.495900
     20 C          -17.7430     6.5980    32.3660 c3         1 RW0       0.097300
     21 C19        -23.0040     1.8990    29.1510 ca         1 RW0       0.141000
     22 Cl         -23.3520     0.5580    28.0680 cl         1 RW0      -0.188000
     23 C18        -22.4900     3.0990    28.6370 ca         1 RW0      -0.106000
     24 C3         -22.0490     6.7030    29.7830 c6         1 RW0       0.131700
     25 O1         -19.4260     4.7850    29.7080 o          1 RW0      -0.569100
     26 N2         -19.5140     6.0660    27.7960 ns         1 RW0      -0.171000
     27 C9         -15.5030     6.7090    26.7380 ca         1 RW0       0.388900
     28 C14        -18.8530     7.0980    25.1810 ca         1 RW0      -0.113000
     29 C12        -17.1520     7.8250    23.5900 ca         1 RW0      -0.266500
     30 C11        -16.1480     7.5250    24.5310 ca         1 RW0       0.037000
     31 S          -16.7080     8.4960    21.9760 sy         1 RW0       1.055500
     32 O2         -17.7640     8.1550    21.0140 o          1 RW0      -0.519500
     33 O3         -15.2990     8.1850    21.7030 o          1 RW0      -0.519500
     34 C16        -16.8040    10.2650    22.2330 c3         1 RW0      -0.334100
     35 H1         -23.7740     8.0350    30.0610 hc         1 RW0       0.052033
     36 H2         -23.6380     7.3850    28.4230 hc         1 RW0       0.052033
     37 H3         -24.2210     6.3530    29.7400 hc         1 RW0       0.052033
     38 H4         -21.9710     5.6640    27.9330 hc         1 RW0       0.076700
     39 H5         -17.2290     5.6450    29.3020 h4         1 RW0       0.030100
     40 H6         -19.2930     7.8410    23.2030 ha         1 RW0       0.135000
     41 H7         -23.6270     0.8320    30.9240 ha         1 RW0       0.138000
     42 H8         -23.1330     2.7180    32.4630 ha         1 RW0       0.147000
     43 H9         -22.1010     7.6150    33.0000 h1         1 RW0       0.077700
     44 H10        -21.6910     8.5550    31.5600 h1         1 RW0       0.077700
     45 H11        -19.5870     6.0060    31.4500 hn         1 RW0       0.340500
     46 H12        -17.3370     5.6860    31.9080 h1         1 RW0       0.037033
     47 H13        -17.2150     7.4720    31.9630 h1         1 RW0       0.037033
     48 H14        -17.5990     6.5510    33.4530 h1         1 RW0       0.037033
     49 H15        -22.3060     3.1890    27.5690 ha         1 RW0       0.129000
     50 H16        -21.4090     7.5490    29.4880 h1         1 RW0       0.056700
     51 H17        -20.1880     6.4970    27.1760 hn         1 RW0       0.164000
     52 H18        -14.4490     6.8650    26.5070 h4         1 RW0       0.031100
     53 H19        -19.9050     6.9420    25.4000 ha         1 RW0       0.121000
     54 H20        -15.0980     7.6910    24.2890 ha         1 RW0       0.150000
     55 H21        -16.0940    10.5350    23.0210 h1         1 RW0       0.107033
     56 H22        -16.5460    10.7620    21.2920 h1         1 RW0       0.107033
     57 H23        -17.8280    10.5120    22.5330 h1         1 RW0       0.107033
     58 O4         -22.0950     5.0470    33.0310 o          1 RW0      -0.531000
@<TRIPOS>BOND
     1     1    15 1   
     2     1    16 1   
     3     1    24 1   
     4     2     7 ar  
     5     2    27 ar  
     6     3    24 1   
     7     3    35 1   
     8     3    36 1   
     9     3    37 1   
    10     4     5 1   
    11     4    11 1   
    12     4    24 1   
    13     4    38 1   
    14     5    25 2   
    15     5    26 1   
    16     6     7 ar  
    17     6    10 ar  
    18     6    26 1   
    19     7    39 1   
    20     8    10 ar  
    21     8    27 ar  
    22     8    30 ar  
    23     9    28 ar  
    24     9    29 ar  
    25     9    40 1   
    26    10    28 ar  
    27    11    14 ar  
    28    11    23 ar  
    29    12    13 ar  
    30    12    21 ar  
    31    12    41 1   
    32    13    14 ar  
    33    13    42 1   
    34    14    15 1   
    35    15    58 2   
    36    16    17 1   
    37    16    43 1   
    38    16    44 1   
    39    17    18 2   
    40    17    19 1   
    41    19    20 1   
    42    19    45 1   
    43    20    46 1   
    44    20    47 1   
    45    20    48 1   
    46    21    22 1   
    47    21    23 ar  
    48    23    49 1   
    49    24    50 1   
    50    26    51 1   
    51    27    52 1   
    52    28    53 1   
    53    29    30 ar  
    54    29    31 1   
    55    30    54 1   
    56    31    32 2   
    57    31    33 2   
    58    31    34 1   
    59    34    55 1   
    60    34    56 1   
    61    34    57 1   
@<TRIPOS>SUBSTRUCTURE
     1 RW0         1 TEMP              0 ****  ****    0 ROOT
