@<TRIPOS>MOLECULE
RW1
   20    21     1     0     0
SMALL
No Charge or Current Charge


@<TRIPOS>ATOM
      1 C2          -2.7600     1.0990     0.2610 ca         1 RW1       0.123900
      2 N3          -3.5500     0.0250     0.0540 nb         1 RW1      -0.174000
      3 C4          -2.9200    -1.1420    -0.1820 ca         1 RW1       0.104900
      4 C5          -1.5180    -1.2270    -0.2060 ca         1 RW1      -0.211000
      5 N1          -1.4110     1.1160     0.2560 nb         1 RW1      -0.186000
      6 C6          -0.7640    -0.0480     0.0280 cp         1 RW1       0.185500
      7 C7           0.7410    -0.0190     0.0260 cp         1 RW1      -0.163500
      8 C8           1.4560     1.1960    -0.1650 ca         1 RW1      -0.074000
      9 C12          1.5060    -1.2020     0.2200 ca         1 RW1      -0.074000
     10 C11          2.9110    -1.1710     0.2180 ca         1 RW1      -0.120500
     11 C10          3.5910     0.0410     0.0230 ca         1 RW1      -0.091000
     12 C9           2.8610     1.2240    -0.1670 ca         1 RW1      -0.120500
     13 H2          -3.2620     2.0460     0.4490 h5         1 RW1       0.049100
     14 H4          -3.5470    -2.0160    -0.3570 h4         1 RW1       0.024100
     15 H5          -1.0400    -2.1790    -0.4150 ha         1 RW1       0.134000
     16 H8           0.9210     2.1300    -0.3210 ha         1 RW1       0.123500
     17 H12          1.0140    -2.1560     0.3910 ha         1 RW1       0.123500
     18 H11          3.4740    -2.0890     0.3720 ha         1 RW1       0.116000
     19 H10          4.6780     0.0630     0.0210 ha         1 RW1       0.114000
     20 H9           3.3850     2.1660    -0.3190 ha         1 RW1       0.116000
@<TRIPOS>BOND
     1     1     2 ar  
     2     1     5 ar  
     3     1    13 1   
     4     2     3 ar  
     5     3     4 ar  
     6     3    14 1   
     7     4     6 ar  
     8     4    15 1   
     9     5     6 ar  
    10     6     7 1   
    11     7     8 ar  
    12     7     9 ar  
    13     8    12 ar  
    14     8    16 1   
    15     9    10 ar  
    16     9    17 1   
    17    10    11 ar  
    18    10    18 1   
    19    11    12 ar  
    20    11    19 1   
    21    12    20 1   
@<TRIPOS>SUBSTRUCTURE
     1 RW1         1 TEMP              0 ****  ****    0 ROOT
