@<TRIPOS>MOLECULE
RW1
   20    21     1     0     0
SMALL
abcg2


@<TRIPOS>ATOM
      1 C2          -2.6890     1.0890     0.2470 ca         1 RW1       0.123900
      2 N3          -3.4740     0.0400     0.0520 nb         1 RW1      -0.174000
      3 C4          -2.8490    -1.1110    -0.1740 ca         1 RW1       0.104900
      4 C5          -1.4720    -1.2170    -0.2000 ca         1 RW1      -0.211000
      5 N1          -1.3690     1.1000     0.2480 nb         1 RW1      -0.186000
      6 C6          -0.7380    -0.0550     0.0300 cp         1 RW1       0.185500
      7 C7           0.7380    -0.0320     0.0310 cp         1 RW1      -0.163500
      8 C8           1.4150     1.1750    -0.1520 ca         1 RW1      -0.074000
      9 C12          1.4790    -1.2000     0.2150 ca         1 RW1      -0.074000
     10 C11          2.8650    -1.1620     0.2120 ca         1 RW1      -0.120500
     11 C10          3.5300     0.0420     0.0190 ca         1 RW1      -0.091000
     12 C9           2.8000     1.2100    -0.1630 ca         1 RW1      -0.120500
     13 H2          -3.1810     2.0390     0.4270 h5         1 RW1       0.049100
     14 H4          -3.4700    -1.9820    -0.3480 h4         1 RW1       0.024100
     15 H5          -1.0030    -2.1670    -0.4100 ha         1 RW1       0.134000
     16 H8           0.8520     2.0870    -0.2950 ha         1 RW1       0.123500
     17 H12          0.9830    -2.1460     0.3860 ha         1 RW1       0.123500
     18 H11          3.4250    -2.0750     0.3660 ha         1 RW1       0.116000
     19 H10          4.6120     0.0700     0.0130 ha         1 RW1       0.114000
     20 H9           3.3120     2.1510    -0.3170 ha         1 RW1       0.116000
@<TRIPOS>BOND
     1     1     2 ar  
     2     1     5 ar  
     3     1    13 1   
     4     2     3 ar  
     5     3     4 ar  
     6     3    14 1   
     7     4     6 ar  
     8     4    15 1   
     9     5     6 ar  
    10     6     7 1   
    11     7     8 ar  
    12     7     9 ar  
    13     8    12 ar  
    14     8    16 1   
    15     9    10 ar  
    16     9    17 1   
    17    10    11 ar  
    18    10    18 1   
    19    11    12 ar  
    20    11    19 1   
    21    12    20 1   
@<TRIPOS>SUBSTRUCTURE
     1 RW1         1 TEMP              0 ****  ****    0 ROOT
