@<TRIPOS>MOLECULE
RW3
   69    75     1     0     0
SMALL
No Charge or Current Charge


@<TRIPOS>ATOM
      1 CAA          2.1530     1.2300     1.7530 c6         1 RW3       0.184800
      2 CAB          0.6310     1.5700     1.6760 c6         1 RW3       0.159300
      3 NAI          0.3680     2.9220     1.0960 n3         1 RW3      -0.717600
      4 CAJ         -1.0720     3.2510     1.0530 c3         1 RW3       0.153100
      5 CAQ          1.0200     3.0340    -0.2450 c6         1 RW3       0.159300
      6 CAP          2.5480     2.7010    -0.2140 c6         1 RW3       0.184800
      7 NAH          2.8270     1.3860     0.4310 nh         1 RW3      -0.740300
      8 CAG          4.0270     0.7180     0.1600 ca         1 RW3       0.585900
      9 NAF          4.9540     0.8470     1.1280 nb         1 RW3      -0.722000
     10 CAE          6.1520     0.2450     0.9670 ca         1 RW3       0.302000
     11 CAD          7.1340     0.3690     1.9670 ca         1 RW3      -0.092000
     12 CAC          8.3910    -0.2460     1.8270 ca         1 RW3      -0.095000
     13 CAK          8.6810    -0.9960     0.6770 ca         1 RW3      -0.117000
     14 CAL          7.7140    -1.1310    -0.3330 ca         1 RW3      -0.079000
     15 CAM          6.4560    -0.5140    -0.1900 ca         1 RW3      -0.103000
     16 CAN          5.4860    -0.6500    -1.1960 ca         1 RW3      -0.019000
     17 CAO          4.2380    -0.0270    -1.0230 ca         1 RW3      -0.158300
     18 CAR          3.1600    -0.1930    -2.0970 c3         1 RW3       0.160900
     19 NAV          1.8390    -0.6520    -1.6170 na         1 RW3      -0.014100
     20 NBA          0.6340    -0.1210    -2.0820 nc         1 RW3      -0.507100
     21 C6           1.6460    -1.6160    -0.6360 ca         1 RW3       0.156500
     22 N1           2.4990    -2.4250     0.0240 nb         1 RW3      -0.230000
     23 C2           1.9280    -3.3060     0.8780 ca         1 RW3       0.196900
     24 N3           0.6010    -3.4730     1.0990 nb         1 RW3      -0.312000
     25 C4          -0.2180    -2.6590     0.4200 ca         1 RW3       0.458900
     26 NAZ         -1.5350    -2.8920     0.5910 nv         1 RW3      -1.068900
     27 C5           0.2960    -1.6930    -0.4390 ca         1 RW3      -0.384900
     28 CBB         -0.2950    -0.7210    -1.3310 cd         1 RW3       0.423500
     29 CBD         -1.7140    -0.3240    -1.3960 ca         1 RW3      -0.098900
     30 CBC         -2.4490    -0.0760    -0.2170 ca         1 RW3      -0.070000
     31 CBE         -2.3190    -0.0540    -2.6470 ca         1 RW3      -0.078000
     32 CBH         -3.6520     0.3990    -2.7190 ca         1 RW3      -0.065000
     33 CBG         -4.3800     0.6130    -1.5380 ca         1 RW3       0.130400
     34 NBO         -5.6940     1.0690    -1.5120 nc         1 RW3      -0.552100
     35 CBF         -3.7710     0.3780    -0.3210 ca         1 RW3      -0.190000
     36 SBJ         -4.8370     0.7390     1.0180 ss         1 RW3      -0.036200
     37 CBN         -6.0460     1.1720    -0.2230 cd         1 RW3       0.491800
     38 NBM         -7.2820     1.5940     0.2070 ns         1 RW3      -0.422400
     39 CBL         -8.3740     1.9820    -0.5370 c          1 RW3       0.607100
     40 CBK         -9.5810     2.3890     0.3000 c3         1 RW3      -0.185100
     41 OBI         -8.4080     2.0090    -1.7590 o          1 RW3      -0.508100
     42 HAA1         2.6270     1.8880     2.4960 h1         1 RW3       0.049450
     43 HAA2         2.2600     0.1950     2.1120 h1         1 RW3       0.049450
     44 HAB1         0.1380     0.7990     1.0680 h1         1 RW3       0.041700
     45 HAB2         0.2060     1.4990     2.6880 h1         1 RW3       0.041700
     46 HAJ1        -1.5150     3.1870     2.0560 h1         1 RW3       0.030033
     47 HAJ2        -1.2250     4.2730     0.6810 h1         1 RW3       0.030033
     48 HAJ3        -1.6130     2.5610     0.3930 h1         1 RW3       0.030033
     49 HAQ1         0.5300     2.3540    -0.9560 h1         1 RW3       0.041700
     50 HAQ2         0.8950     4.0510    -0.6450 h1         1 RW3       0.041700
     51 HAP1         2.9300     2.7110    -1.2450 h1         1 RW3       0.049450
     52 HAP2         3.0720     3.4970     0.3340 h1         1 RW3       0.049450
     53 HAD          6.9170     0.9480     2.8600 ha         1 RW3       0.130000
     54 HAC          9.1390    -0.1400     2.6110 ha         1 RW3       0.115000
     55 HAK          9.6530    -1.4720     0.5670 ha         1 RW3       0.115000
     56 HAL          7.9440    -1.7140    -1.2220 ha         1 RW3       0.116000
     57 HAN          5.6960    -1.2350    -2.0890 ha         1 RW3       0.129000
     58 HAR1         3.0240     0.7680    -2.6080 h1         1 RW3       0.078200
     59 HAR2         3.5020    -0.9110    -2.8530 h1         1 RW3       0.078200
     60 H2           2.6020    -3.9640     1.4250 h5         1 RW3       0.046100
     61 HAZ1        -1.8060    -3.7610     1.0420 hn         1 RW3       0.504000
     62 HAZ2        -2.1890    -2.5030    -0.0810 hn         1 RW3       0.504000
     63 HBC         -1.9960    -0.2130     0.7630 ha         1 RW3       0.132000
     64 HBE         -1.7560    -0.2010    -3.5660 ha         1 RW3       0.133000
     65 HBH         -4.1130     0.5930    -3.6830 ha         1 RW3       0.141000
     66 HBM         -7.4330     1.6330     1.2040 hn         1 RW3       0.329500
     67 HBK1        -9.2830     3.1810     0.9970 hc         1 RW3       0.067367
     68 HBK2       -10.4360     2.6930    -0.3140 hc         1 RW3       0.067367
     69 HBK3        -9.8420     1.5670     0.9770 hc         1 RW3       0.067367
@<TRIPOS>BOND
     1     1     2 1   
     2     1     7 1   
     3     1    42 1   
     4     1    43 1   
     5     2     3 1   
     6     2    44 1   
     7     2    45 1   
     8     3     4 1   
     9     3     5 1   
    10     4    46 1   
    11     4    47 1   
    12     4    48 1   
    13     5     6 1   
    14     5    49 1   
    15     5    50 1   
    16     6     7 1   
    17     6    51 1   
    18     6    52 1   
    19     7     8 1   
    20     8     9 ar  
    21     8    17 ar  
    22     9    10 ar  
    23    10    11 ar  
    24    10    15 ar  
    25    11    12 ar  
    26    11    53 1   
    27    12    13 ar  
    28    12    54 1   
    29    13    14 ar  
    30    13    55 1   
    31    14    15 ar  
    32    14    56 1   
    33    15    16 ar  
    34    16    17 ar  
    35    16    57 1   
    36    17    18 1   
    37    18    19 1   
    38    18    58 1   
    39    18    59 1   
    40    19    20 1   
    41    19    21 1   
    42    20    28 2   
    43    21    22 ar  
    44    21    27 ar  
    45    22    23 ar  
    46    23    24 ar  
    47    23    60 1   
    48    24    25 ar  
    49    25    26 1   
    50    25    27 ar  
    51    26    61 1   
    52    26    62 1   
    53    27    28 1   
    54    28    29 1   
    55    29    30 ar  
    56    29    31 ar  
    57    30    35 ar  
    58    30    63 1   
    59    31    32 ar  
    60    31    64 1   
    61    32    33 ar  
    62    32    65 1   
    63    33    34 1   
    64    33    35 ar  
    65    34    37 2   
    66    35    36 1   
    67    36    37 1   
    68    37    38 1   
    69    38    39 1   
    70    38    66 1   
    71    39    40 1   
    72    39    41 2   
    73    40    67 1   
    74    40    68 1   
    75    40    69 1   
@<TRIPOS>SUBSTRUCTURE
     1 RW3         1 TEMP              0 ****  ****    0 ROOT
