@<TRIPOS>MOLECULE
RW3
   69    75     1     0     0
SMALL
abcg2


@<TRIPOS>ATOM
      1 CAA          1.7000     1.4760     0.7520 c6         1 RW3       0.184800
      2 CAB          0.4850     2.2990     0.3820 c6         1 RW3       0.159300
      3 NAI          0.7560     3.7120     0.5620 n3         1 RW3      -0.717600
      4 CAJ         -0.4020     4.5170     0.2540 c3         1 RW3       0.153100
      5 CAQ          1.9110     4.1070    -0.2200 c6         1 RW3       0.159300
      6 CAP          3.1310     3.2910     0.1660 c6         1 RW3       0.184800
      7 NAH          2.8480     1.8810    -0.0590 nh         1 RW3      -0.740300
      8 CAG          3.9460     1.0170     0.0370 ca         1 RW3       0.585900
      9 NAF          4.9240     1.3430     0.8380 nb         1 RW3      -0.722000
     10 CAE          5.9960     0.5290     0.9650 ca         1 RW3       0.302000
     11 CAD          7.0470     0.9040     1.8310 ca         1 RW3      -0.092000
     12 CAC          8.1300     0.0810     1.9970 ca         1 RW3      -0.095000
     13 CAK          8.2170    -1.1450     1.3060 ca         1 RW3      -0.117000
     14 CAL          7.2150    -1.5270     0.4540 ca         1 RW3      -0.079000
     15 CAM          6.0890    -0.6970     0.2670 ca         1 RW3      -0.103000
     16 CAN          5.0420    -1.0040    -0.6270 ca         1 RW3      -0.019000
     17 CAO          3.9750    -0.1630    -0.7750 ca         1 RW3      -0.158300
     18 CAR          2.9820    -0.4160    -1.8780 c3         1 RW3       0.160900
     19 NAV          1.7240    -0.9960    -1.4530 na         1 RW3      -0.014100
     20 NBA          0.5680    -0.3520    -1.6670 nc         1 RW3      -0.507100
     21 C6           1.5260    -2.1560    -0.7980 ca         1 RW3       0.156500
     22 N1           2.4520    -3.0560    -0.4570 nb         1 RW3      -0.230000
     23 C2           1.9250    -4.1010     0.1470 ca         1 RW3       0.196900
     24 N3           0.6440    -4.3500     0.4110 nb         1 RW3      -0.312000
     25 C4          -0.2780    -3.4540     0.0490 ca         1 RW3       0.458900
     26 NAZ         -1.5570    -3.7440     0.2830 nv         1 RW3      -1.068900
     27 C5           0.1520    -2.2540    -0.5660 ca         1 RW3      -0.384900
     28 CBB         -0.3930    -1.0700    -1.1350 cd         1 RW3       0.423500
     29 CBD         -1.7750    -0.5810    -1.1450 ca         1 RW3      -0.098900
     30 CBC         -2.5260    -0.6200     0.0250 ca         1 RW3      -0.070000
     31 CBE         -2.3220    -0.0240    -2.3100 ca         1 RW3      -0.078000
     32 CBH         -3.6070     0.4830    -2.3290 ca         1 RW3      -0.065000
     33 CBG         -4.3730     0.4430    -1.1660 ca         1 RW3       0.130400
     34 NBO         -5.6570     0.9150    -1.0400 nc         1 RW3      -0.552100
     35 CBF         -3.8150    -0.1120    -0.0040 ca         1 RW3      -0.190000
     36 SBJ         -4.9670    -0.0150     1.2860 ss         1 RW3      -0.036200
     37 CBN         -6.0840     0.7490     0.1580 cd         1 RW3       0.491800
     38 NBM         -7.3110     1.1060     0.6460 ns         1 RW3      -0.422400
     39 CBL         -8.3260     1.7500    -0.0380 c          1 RW3       0.607100
     40 CBK         -9.5410     1.9820     0.8170 c3         1 RW3      -0.185100
     41 OBI         -8.2330     2.0810    -1.1950 o          1 RW3      -0.508100
     42 HAA1         1.9240     1.6170     1.8210 h1         1 RW3       0.049450
     43 HAA2         1.4880     0.4180     0.6140 h1         1 RW3       0.049450
     44 HAB1         0.1910     2.0650    -0.6540 h1         1 RW3       0.041700
     45 HAB2        -0.3490     2.0090     1.0280 h1         1 RW3       0.041700
     46 HAJ1        -1.2400     4.2210     0.8880 h1         1 RW3       0.030033
     47 HAJ2        -0.1910     5.5700     0.4480 h1         1 RW3       0.030033
     48 HAJ3        -0.7300     4.4270    -0.7940 h1         1 RW3       0.030033
     49 HAQ1         1.7300     3.9960    -1.3030 h1         1 RW3       0.041700
     50 HAQ2         2.1190     5.1640    -0.0340 h1         1 RW3       0.041700
     51 HAP1         3.9780     3.5930    -0.4510 h1         1 RW3       0.049450
     52 HAP2         3.3920     3.4960     1.2120 h1         1 RW3       0.049450
     53 HAD          6.9730     1.8440     2.3620 ha         1 RW3       0.130000
     54 HAC          8.9300     0.3730     2.6660 ha         1 RW3       0.115000
     55 HAK          9.0790    -1.7820     1.4510 ha         1 RW3       0.115000
     56 HAL          7.2750    -2.4650    -0.0850 ha         1 RW3       0.116000
     57 HAN          5.1060    -1.9000    -1.2310 ha         1 RW3       0.129000
     58 HAR1         2.7260     0.5190    -2.3730 h1         1 RW3       0.078200
     59 HAR2         3.4380    -1.0760    -2.6170 h1         1 RW3       0.078200
     60 H2           2.6210    -4.8700     0.4660 h5         1 RW3       0.046100
     61 HAZ1        -1.7980    -4.6450     0.6600 hn         1 RW3       0.504000
     62 HAZ2        -2.3060    -3.1670    -0.0580 hn         1 RW3       0.504000
     63 HBC         -2.1030    -0.9990     0.9470 ha         1 RW3       0.132000
     64 HBE         -1.7260    -0.0010    -3.2120 ha         1 RW3       0.133000
     65 HBH         -4.0210     0.9060    -3.2350 ha         1 RW3       0.141000
     66 HBM         -7.4940     0.8850     1.6140 hn         1 RW3       0.329500
     67 HBK1        -9.2800     2.5210     1.7290 hc         1 RW3       0.067367
     68 HBK2       -10.2820     2.5550     0.2670 hc         1 RW3       0.067367
     69 HBK3        -9.9820     1.0290     1.1150 hc         1 RW3       0.067367
@<TRIPOS>BOND
     1     1     2 1   
     2     1     7 1   
     3     1    42 1   
     4     1    43 1   
     5     2     3 1   
     6     2    44 1   
     7     2    45 1   
     8     3     4 1   
     9     3     5 1   
    10     4    46 1   
    11     4    47 1   
    12     4    48 1   
    13     5     6 1   
    14     5    49 1   
    15     5    50 1   
    16     6     7 1   
    17     6    51 1   
    18     6    52 1   
    19     7     8 1   
    20     8     9 ar  
    21     8    17 ar  
    22     9    10 ar  
    23    10    11 ar  
    24    10    15 ar  
    25    11    12 ar  
    26    11    53 1   
    27    12    13 ar  
    28    12    54 1   
    29    13    14 ar  
    30    13    55 1   
    31    14    15 ar  
    32    14    56 1   
    33    15    16 ar  
    34    16    17 ar  
    35    16    57 1   
    36    17    18 1   
    37    18    19 1   
    38    18    58 1   
    39    18    59 1   
    40    19    20 1   
    41    19    21 1   
    42    20    28 2   
    43    21    22 ar  
    44    21    27 ar  
    45    22    23 ar  
    46    23    24 ar  
    47    23    60 1   
    48    24    25 ar  
    49    25    26 1   
    50    25    27 ar  
    51    26    61 1   
    52    26    62 1   
    53    27    28 1   
    54    28    29 1   
    55    29    30 ar  
    56    29    31 ar  
    57    30    35 ar  
    58    30    63 1   
    59    31    32 ar  
    60    31    64 1   
    61    32    33 ar  
    62    32    65 1   
    63    33    34 1   
    64    33    35 ar  
    65    34    37 2   
    66    35    36 1   
    67    36    37 1   
    68    37    38 1   
    69    38    39 1   
    70    38    66 1   
    71    39    40 1   
    72    39    41 2   
    73    40    67 1   
    74    40    68 1   
    75    40    69 1   
@<TRIPOS>SUBSTRUCTURE
     1 RW3         1 TEMP              0 ****  ****    0 ROOT
