@<TRIPOS>MOLECULE
RW4
   64    70     1     0     0
SMALL
bcc


@<TRIPOS>ATOM
      1 CAA         -3.0290    -0.6890    -1.5980 c6         1 RW4       0.154300
      2 CAB         -2.9670    -2.1920    -1.8550 c6         1 RW4       0.159300
      3 NAI         -4.1370    -2.9130    -1.3850 n3         1 RW4      -0.715600
      4 CAJ         -5.3050    -2.7330    -2.2220 c3         1 RW4       0.152100
      5 CAQ         -4.3700    -2.6090     0.0160 c6         1 RW4       0.159300
      6 CAP         -4.4210    -1.1170     0.3190 c6         1 RW4       0.154300
      7 NAH         -3.1990    -0.4710    -0.1690 nh         1 RW4      -0.742300
      8 CAG         -3.0200     0.8330     0.2860 ca         1 RW4       0.660200
      9 NAF         -3.1960     1.8230    -0.5440 nb         1 RW4      -0.725000
     10 CAE         -3.0490     3.0980    -0.1120 ca         1 RW4       0.435600
     11 CAD         -3.2380     4.1580    -1.0250 ca         1 RW4      -0.175300
     12 CAC         -3.1320     5.4590    -0.6050 ca         1 RW4      -0.113000
     13 CAK         -2.8250     5.7600     0.7360 ca         1 RW4      -0.135000
     14 CAL         -2.6270     4.7470     1.6390 ca         1 RW4      -0.098000
     15 CAM         -2.7350     3.4020     1.2320 ca         1 RW4      -0.166300
     16 CAN         -2.4900     2.3090     2.0950 ca         1 RW4      -0.046000
     17 CAO         -2.6060     1.0280     1.6450 ca         1 RW4      -0.218600
     18 CAR         -2.1400    -0.1150     2.5010 c3         1 RW4       0.134600
     19 NAV         -0.9380    -0.7060     1.9530 na         1 RW4       0.020200
     20 NBA          0.0850     0.0680     1.5660 nc         1 RW4      -0.512100
     21 C6          -0.6870    -2.0070     1.7230 ca         1 RW4       0.498800
     22 N1          -1.4740    -3.0460     2.0120 nb         1 RW4      -0.765000
     23 C2          -0.9170    -4.1960     1.6940 ca         1 RW4       0.723900
     24 N3           0.2910    -4.4190     1.1800 nb         1 RW4      -0.838000
     25 C4           1.0830    -3.3760     0.9180 ca         1 RW4       0.783200
     26 NAZ          2.3050    -3.6260     0.4430 nv         1 RW4      -0.956500
     27 C5           0.5880    -2.0730     1.1550 ca         1 RW4      -0.513500
     28 CBB          1.0150    -0.7180     1.0760 cd         1 RW4       0.433500
     29 CBD          2.2720    -0.1650     0.5620 ca         1 RW4      -0.109900
     30 CBC          2.7780    -0.5980    -0.6630 ca         1 RW4      -0.077000
     31 CBF          3.9650    -0.0510    -1.1170 ca         1 RW4      -0.071100
     32 SBI          4.8250    -0.3970    -2.5890 ss         1 RW4      -0.169100
     33 CBK          6.0390     0.7860    -2.1000 cc         1 RW4       0.652100
     34 NBJ          7.1120     0.9840    -2.8750 nv         1 RW4      -0.913800
     35 NBL          5.8260     1.3780    -0.9680 nd         1 RW4      -0.635100
     36 CBG          4.6670     0.9280    -0.3930 ca         1 RW4       0.152400
     37 CBH          4.1410     1.3630     0.8220 ca         1 RW4      -0.102000
     38 CBE          2.9570     0.8190     1.2860 ca         1 RW4      -0.088000
     39 HAA1        -2.0970    -0.2250    -1.9220 h1         1 RW4       0.045450
     40 HAA2        -3.8380    -0.2320    -2.1830 h1         1 RW4       0.045450
     41 HAB1        -2.8360    -2.3750    -2.9240 h1         1 RW4       0.063200
     42 HAB2        -2.0860    -2.5940    -1.3440 h1         1 RW4       0.063200
     43 HAJ1        -5.0800    -3.0610    -3.2380 h1         1 RW4       0.029367
     44 HAJ2        -6.1200    -3.3550    -1.8470 h1         1 RW4       0.029367
     45 HAJ3        -5.6870    -1.7050    -2.2870 h1         1 RW4       0.029367
     46 HAQ1        -5.3030    -3.0780     0.3380 h1         1 RW4       0.063200
     47 HAQ2        -3.5590    -3.0420     0.6070 h1         1 RW4       0.063200
     48 HAP1        -5.3030    -0.6500    -0.1460 h1         1 RW4       0.045450
     49 HAP2        -4.5270    -0.9690     1.3940 h1         1 RW4       0.045450
     50 HAD         -3.4750     3.9210    -2.0540 ha         1 RW4       0.147000
     51 HAC         -3.2840     6.2660    -1.3100 ha         1 RW4       0.133000
     52 HAK         -2.7430     6.7920     1.0490 ha         1 RW4       0.133000
     53 HAL         -2.3830     4.9690     2.6710 ha         1 RW4       0.132000
     54 HAN         -2.1600     2.5020     3.1100 ha         1 RW4       0.137000
     55 HAR1        -1.9350     0.2460     3.5100 h1         1 RW4       0.071200
     56 HAR2        -2.8680    -0.9190     2.5940 h1         1 RW4       0.071200
     57 H2          -1.5110    -5.0840     1.8850 h5         1 RW4       0.045100
     58 HAZ1         2.6230    -4.5800     0.3950 hn         1 RW4       0.446300
     59 HAZ2         3.0030    -2.9050     0.3820 hn         1 RW4       0.446300
     60 HBC          2.2390    -1.3220    -1.2600 ha         1 RW4       0.149000
     61 HBE          2.5580     1.1480     2.2360 ha         1 RW4       0.147000
     62 HBJ1         7.1250     0.6650    -3.8290 hn         1 RW4       0.440300
     63 HBJ2         7.7170     1.7580    -2.6560 hn         1 RW4       0.440300
     64 HBH          4.6640     2.1160     1.3970 ha         1 RW4       0.151000
@<TRIPOS>BOND
     1     1     2 1   
     2     1     7 1   
     3     1    39 1   
     4     1    40 1   
     5     2     3 1   
     6     2    41 1   
     7     2    42 1   
     8     3     4 1   
     9     3     5 1   
    10     4    43 1   
    11     4    44 1   
    12     4    45 1   
    13     5     6 1   
    14     5    46 1   
    15     5    47 1   
    16     6     7 1   
    17     6    48 1   
    18     6    49 1   
    19     7     8 1   
    20     8     9 ar  
    21     8    17 ar  
    22     9    10 ar  
    23    10    11 ar  
    24    10    15 ar  
    25    11    12 ar  
    26    11    50 1   
    27    12    13 ar  
    28    12    51 1   
    29    13    14 ar  
    30    13    52 1   
    31    14    15 ar  
    32    14    53 1   
    33    15    16 ar  
    34    16    17 ar  
    35    16    54 1   
    36    17    18 1   
    37    18    19 1   
    38    18    55 1   
    39    18    56 1   
    40    19    20 1   
    41    19    21 1   
    42    20    28 2   
    43    21    22 ar  
    44    21    27 ar  
    45    22    23 ar  
    46    23    24 ar  
    47    23    57 1   
    48    24    25 ar  
    49    25    26 1   
    50    25    27 ar  
    51    26    58 1   
    52    26    59 1   
    53    27    28 1   
    54    28    29 1   
    55    29    30 ar  
    56    29    38 ar  
    57    30    31 ar  
    58    30    60 1   
    59    31    32 1   
    60    31    36 ar  
    61    32    33 1   
    62    33    34 1   
    63    33    35 2   
    64    34    62 1   
    65    34    63 1   
    66    35    36 1   
    67    36    37 ar  
    68    37    38 ar  
    69    37    64 1   
    70    38    61 1   
@<TRIPOS>SUBSTRUCTURE
     1 RW4         1 TEMP              0 ****  ****    0 ROOT
