@<TRIPOS>MOLECULE
RW4
   64    70     1     0     0
SMALL
No Charge or Current Charge


@<TRIPOS>ATOM
      1 CAA         -2.2030    -0.5740    -1.1600 c6         1 RW4       0.154300
      2 CAB         -2.0680    -2.1060    -1.4490 c6         1 RW4       0.159300
      3 NAI         -3.3870    -2.7910    -1.6120 n3         1 RW4      -0.715600
      4 CAJ         -4.0750    -2.4450    -2.8790 c3         1 RW4       0.152100
      5 CAQ         -4.2210    -2.5400    -0.3960 c6         1 RW4       0.159300
      6 CAP         -4.4140    -1.0180    -0.0870 c6         1 RW4       0.154300
      7 NAH         -3.1190    -0.2780    -0.0160 nh         1 RW4      -0.742300
      8 CAG         -3.1130     1.0090     0.5330 ca         1 RW4       0.594900
      9 NAF         -3.6070     1.9600    -0.2820 nb         1 RW4      -0.725000
     10 CAE         -3.6530     3.2340     0.1650 ca         1 RW4       0.305000
     11 CAD         -4.1620     4.2470    -0.6700 ca         1 RW4      -0.092000
     12 CAC         -4.2240     5.5820    -0.2340 ca         1 RW4      -0.095000
     13 CAK         -3.7740     5.9220     1.0510 ca         1 RW4      -0.117000
     14 CAL         -3.2630     4.9270     1.9000 ca         1 RW4      -0.080000
     15 CAM         -3.2020     3.5900     1.4610 ca         1 RW4      -0.101000
     16 CAN         -2.6910     2.5920     2.3080 ca         1 RW4      -0.028000
     17 CAO         -2.6440     1.2700     1.8370 ca         1 RW4      -0.153300
     18 CAR         -2.0900     0.1570     2.7200 c3         1 RW4       0.163900
     19 NAV         -0.8720    -0.4780     2.1790 na         1 RW4      -0.009100
     20 NBA          0.2450     0.2390     1.7390 nc         1 RW4      -0.512100
     21 C6          -0.7350    -1.8440     1.9810 ca         1 RW4       0.170500
     22 N1          -1.5220    -2.8900     2.3020 nb         1 RW4      -0.239000
     23 C2          -1.0230    -4.1110     1.9980 ca         1 RW4       0.197900
     24 N3           0.1850    -4.3740     1.4440 nb         1 RW4      -0.312000
     25 C4           0.9440    -3.3110     1.1460 ca         1 RW4       0.454900
     26 NAZ          2.1710    -3.5920     0.6610 nv         1 RW4      -1.066900
     27 C5           0.4810    -2.0220     1.3860 ca         1 RW4      -0.382900
     28 CBB          1.0460    -0.7020     1.2280 cd         1 RW4       0.433500
     29 CBD          2.3070    -0.3590     0.5460 ca         1 RW4      -0.109900
     30 CBC          2.6010    -0.8890    -0.7290 ca         1 RW4      -0.059000
     31 CBF          3.7850    -0.4980    -1.3710 ca         1 RW4      -0.198000
     32 SBI          4.3310    -1.0540    -2.9450 ss         1 RW4      -0.042200
     33 CBK          5.7220     0.0130    -2.6610 cc         1 RW4       0.652100
     34 NBJ          6.7220     0.1590    -3.5450 nv         1 RW4      -1.024200
     35 NBL          5.7970     0.7210    -1.5470 nd         1 RW4      -0.635100
     36 CBG          4.6610     0.4100    -0.8070 ca         1 RW4       0.152400
     37 CBH          4.3660     0.9730     0.4430 ca         1 RW4      -0.084000
     38 CBE          3.1830     0.5970     1.1120 ca         1 RW4      -0.070000
     39 HAA1        -1.2010    -0.1730    -0.9480 h1         1 RW4       0.045450
     40 HAA2        -2.5670    -0.0710    -2.0670 h1         1 RW4       0.045450
     41 HAB1        -1.4430    -2.2470    -2.3430 h1         1 RW4       0.063200
     42 HAB2        -1.5170    -2.5640    -0.6150 h1         1 RW4       0.063200
     43 HAJ1        -3.4430    -2.6960    -3.7410 h1         1 RW4       0.029367
     44 HAJ2        -5.0130    -3.0090    -2.9740 h1         1 RW4       0.029367
     45 HAJ3        -4.3140    -1.3750    -2.9300 h1         1 RW4       0.029367
     46 HAQ1        -5.2100    -3.0120    -0.4990 h1         1 RW4       0.063200
     47 HAQ2        -3.7460    -3.0060     0.4800 h1         1 RW4       0.063200
     48 HAP1        -5.0550    -0.5730    -0.8620 h1         1 RW4       0.045450
     49 HAP2        -4.9500    -0.9230     0.8690 h1         1 RW4       0.045450
     50 HAD         -4.5130     3.9910    -1.6660 ha         1 RW4       0.129000
     51 HAC         -4.6200     6.3520    -0.8930 ha         1 RW4       0.115000
     52 HAK         -3.8210     6.9550     1.3900 ha         1 RW4       0.115000
     53 HAL         -2.9150     5.1960     2.8950 ha         1 RW4       0.114000
     54 HAN         -2.3360     2.8400     3.3060 ha         1 RW4       0.119000
     55 HAR1        -1.8540     0.5520     3.7160 h1         1 RW4       0.071200
     56 HAR2        -2.8650    -0.6080     2.8480 h1         1 RW4       0.071200
     57 H2          -1.6460    -4.9690     2.2430 h5         1 RW4       0.045100
     58 HAZ1         2.5030    -4.5490     0.7410 hn         1 RW4       0.501500
     59 HAZ2         2.8760    -2.8630     0.6650 hn         1 RW4       0.501500
     60 HBC          1.9170    -1.5820    -1.2160 ha         1 RW4       0.131000
     61 HBE          2.9510     1.0430     2.0770 ha         1 RW4       0.129000
     62 HBJ1         6.5250    -0.0920    -4.5070 hn         1 RW4       0.495500
     63 HBJ2         7.3130     0.9690    -3.4040 hn         1 RW4       0.495500
     64 HBH          5.0420     1.6990     0.8880 ha         1 RW4       0.133000
@<TRIPOS>BOND
     1     1     2 1   
     2     1     7 1   
     3     1    39 1   
     4     1    40 1   
     5     2     3 1   
     6     2    41 1   
     7     2    42 1   
     8     3     4 1   
     9     3     5 1   
    10     4    43 1   
    11     4    44 1   
    12     4    45 1   
    13     5     6 1   
    14     5    46 1   
    15     5    47 1   
    16     6     7 1   
    17     6    48 1   
    18     6    49 1   
    19     7     8 1   
    20     8     9 ar  
    21     8    17 ar  
    22     9    10 ar  
    23    10    11 ar  
    24    10    15 ar  
    25    11    12 ar  
    26    11    50 1   
    27    12    13 ar  
    28    12    51 1   
    29    13    14 ar  
    30    13    52 1   
    31    14    15 ar  
    32    14    53 1   
    33    15    16 ar  
    34    16    17 ar  
    35    16    54 1   
    36    17    18 1   
    37    18    19 1   
    38    18    55 1   
    39    18    56 1   
    40    19    20 1   
    41    19    21 1   
    42    20    28 2   
    43    21    22 ar  
    44    21    27 ar  
    45    22    23 ar  
    46    23    24 ar  
    47    23    57 1   
    48    24    25 ar  
    49    25    26 1   
    50    25    27 ar  
    51    26    58 1   
    52    26    59 1   
    53    27    28 1   
    54    28    29 1   
    55    29    30 ar  
    56    29    38 ar  
    57    30    31 ar  
    58    30    60 1   
    59    31    32 1   
    60    31    36 ar  
    61    32    33 1   
    62    33    34 1   
    63    33    35 2   
    64    34    62 1   
    65    34    63 1   
    66    35    36 1   
    67    36    37 ar  
    68    37    38 ar  
    69    37    64 1   
    70    38    61 1   
@<TRIPOS>SUBSTRUCTURE
     1 RW4         1 TEMP              0 ****  ****    0 ROOT
