@<TRIPOS>MOLECULE
RW5
   44    47     1     0     0
SMALL
abcg2


@<TRIPOS>ATOM
      1 C18        -45.5050   -32.0000     0.1670 cc         1 RW5       0.124300
      2 C17        -44.3850   -31.1390     0.6710 c6         1 RW5       0.084400
      3 C14        -44.2980   -28.6150     5.9170 ca         1 RW5       0.131900
      4 C12        -46.4490   -29.2040     5.9550 ca         1 RW5       0.126500
      5 C10        -48.4800   -29.9330     5.3790 cc         1 RW5      -0.149100
      6 C20        -47.3560   -33.1500    -0.3470 cd         1 RW5      -0.182000
      7 C19        -46.7240   -32.3370     0.6540 cd         1 RW5      -0.171000
      8 C02        -42.6980   -32.9360     1.3400 c6         1 RW5      -0.063700
      9 C03        -42.9010   -32.5210     2.7990 c6         1 RW5      -0.091400
     10 C04        -44.2990   -31.9590     3.0270 c6         1 RW5       0.109000
     11 C07        -45.1940   -29.3930     3.9510 ca         1 RW5       0.125500
     12 C08        -46.4220   -29.5610     4.5790 ca         1 RW5      -0.171800
     13 C09        -47.7330   -30.0230     4.2370 cd         1 RW5      -0.207200
     14 C21        -46.4820   -33.2570    -1.3800 cc         1 RW5       0.140300
     15 C23        -46.5100   -33.9500    -2.6890 c3         1 RW5      -0.121400
     16 C24        -42.9900   -31.7380     0.4370 c6         1 RW5      -0.078400
     17 N05        -44.5830   -30.8600     2.0970 n          1 RW5      -0.397800
     18 N11        -47.7070   -29.4390     6.4150 na         1 RW5      -0.330400
     19 N13        -45.4090   -28.7330     6.6390 nb         1 RW5      -0.182000
     20 N15        -44.1380   -28.9200     4.6190 nb         1 RW5      -0.181000
     21 O16        -45.3020   -28.7330     1.6970 o          1 RW5      -0.583100
     22 O22        -45.3410   -32.5530    -1.0760 os         1 RW5      -0.261000
     23 H171       -44.4340   -30.1760     0.1620 h1         1 RW5       0.104700
     24 H101       -49.5150   -30.1800     5.5500 h4         1 RW5       0.222000
     25 H201       -48.3330   -33.6040    -0.2970 ha         1 RW5       0.138000
     26 H191       -47.1300   -32.0470     1.6090 ha         1 RW5       0.138000
     27 H021       -43.4250   -33.7240     1.1110 hc         1 RW5       0.053700
     28 H031       -42.7570   -33.3770     3.4630 hc         1 RW5       0.053200
     29 H032       -42.1570   -31.7650     3.0700 hc         1 RW5       0.053200
     30 H042       -44.4080   -31.5940     4.0440 h1         1 RW5       0.053200
     31 H041       -45.0430   -32.7430     2.8750 h1         1 RW5       0.053200
     32 H091       -48.0740   -30.3730     3.2780 ha         1 RW5       0.218000
     33 H231       -46.3880   -33.2440    -3.5140 hc         1 RW5       0.054367
     34 H233       -45.7080   -34.6900    -2.7640 hc         1 RW5       0.054367
     35 H232       -47.4630   -34.4620    -2.8110 hc         1 RW5       0.054367
     36 H241       -42.9000   -32.0150    -0.6140 hc         1 RW5       0.059700
     37 H242       -42.2550   -30.9530     0.6320 hc         1 RW5       0.059700
     38 H111       -48.0230   -29.2790     7.3590 hn         1 RW5       0.367000
     39 C01        -41.2960   -33.4860     1.0970 c3         1 RW5      -0.085100
     40 C06        -45.0230   -29.6480     2.4750 c          1 RW5       0.517600
     41 H141       -43.4230   -28.2330     6.4300 h5         1 RW5       0.054100
     42 H013       -41.0990   -34.3510     1.7340 hc         1 RW5       0.035700
     43 H012       -41.1720   -33.7940     0.0560 hc         1 RW5       0.035700
     44 H011       -40.5410   -32.7270     1.3160 hc         1 RW5       0.035700
@<TRIPOS>BOND
     1     1     2 1   
     2     1     7 2   
     3     1    22 1   
     4     2    16 1   
     5     2    17 1   
     6     2    23 1   
     7     3    19 ar  
     8     3    20 ar  
     9     3    41 1   
    10     4    12 ar  
    11     4    18 1   
    12     4    19 ar  
    13     5    13 2   
    14     5    18 1   
    15     5    24 1   
    16     6     7 1   
    17     6    14 2   
    18     6    25 1   
    19     7    26 1   
    20     8     9 1   
    21     8    16 1   
    22     8    27 1   
    23     8    39 1   
    24     9    10 1   
    25     9    28 1   
    26     9    29 1   
    27    10    17 1   
    28    10    30 1   
    29    10    31 1   
    30    11    12 ar  
    31    11    20 ar  
    32    11    40 1   
    33    12    13 1   
    34    13    32 1   
    35    14    15 1   
    36    14    22 1   
    37    15    33 1   
    38    15    34 1   
    39    15    35 1   
    40    16    36 1   
    41    16    37 1   
    42    17    40 1   
    43    18    38 1   
    44    21    40 2   
    45    39    42 1   
    46    39    43 1   
    47    39    44 1   
@<TRIPOS>SUBSTRUCTURE
     1 RW5         1 TEMP              0 ****  ****    0 ROOT
