@<TRIPOS>MOLECULE
RW5
   44    47     1     0     0
SMALL
No Charge or Current Charge


@<TRIPOS>ATOM
      1 C18        -45.3280   -32.0910     0.1350 cc         1 RW5       0.124300
      2 C17        -44.2520   -31.1850     0.7220 c6         1 RW5       0.084400
      3 C14        -44.4200   -29.0120     6.0570 ca         1 RW5       0.131900
      4 C12        -46.7030   -28.9490     6.0750 ca         1 RW5       0.126500
      5 C10        -48.9140   -29.0960     5.4050 cc         1 RW5      -0.149100
      6 C20        -47.0910   -33.4150    -0.2430 cd         1 RW5      -0.182000
      7 C19        -46.4040   -32.6840     0.7460 cd         1 RW5      -0.171000
      8 C02        -42.4950   -32.9970     1.2130 c6         1 RW5      -0.063700
      9 C03        -42.5990   -32.6420     2.7110 c6         1 RW5      -0.091400
     10 C04        -43.9930   -32.0770     3.0660 c6         1 RW5       0.109000
     11 C07        -45.4890   -29.6350     4.0940 ca         1 RW5       0.125500
     12 C08        -46.7000   -29.3680     4.7670 ca         1 RW5      -0.171800
     13 C09        -48.0810   -29.4580     4.3610 cd         1 RW5      -0.207200
     14 C21        -46.4120   -33.2370    -1.4160 cc         1 RW5       0.140300
     15 C23        -46.6710   -33.7660    -2.7950 c3         1 RW5      -0.121400
     16 C24        -42.8400   -31.7410     0.3830 c6         1 RW5      -0.078400
     17 N05        -44.4250   -30.9350     2.1940 n          1 RW5      -0.397800
     18 N11        -48.0270   -28.7850     6.4590 na         1 RW5      -0.330400
     19 N13        -45.5560   -28.7630     6.7520 nb         1 RW5      -0.182000
     20 N15        -44.3270   -29.4270     4.7690 nb         1 RW5      -0.181000
     21 O16        -46.2160   -29.5420     1.8140 o          1 RW5      -0.583100
     22 O22        -45.3280   -32.4180    -1.2060 os         1 RW5      -0.261000
     23 H171       -44.3320   -30.2150     0.2090 h1         1 RW5       0.104700
     24 H101       -49.9980   -29.0380     5.4810 h4         1 RW5       0.222000
     25 H201       -47.9900   -34.0080    -0.1080 ha         1 RW5       0.138000
     26 H191       -46.6810   -32.6000     1.7910 ha         1 RW5       0.138000
     27 H021       -43.2170   -33.7940     0.9810 hc         1 RW5       0.053700
     28 H031       -42.3970   -33.5290     3.3260 hc         1 RW5       0.053200
     29 H032       -41.8330   -31.8990     2.9740 hc         1 RW5       0.053200
     30 H042       -43.9900   -31.7970     4.1250 h1         1 RW5       0.053200
     31 H041       -44.7280   -32.8880     2.9690 h1         1 RW5       0.053200
     32 H091       -48.4300   -29.7620     3.3750 ha         1 RW5       0.218000
     33 H231       -46.8510   -32.9440    -3.4980 hc         1 RW5       0.054367
     34 H233       -45.8130   -34.3440    -3.1570 hc         1 RW5       0.054367
     35 H232       -47.5500   -34.4210    -2.8050 hc         1 RW5       0.054367
     36 H241       -42.7650   -31.9600    -0.6910 hc         1 RW5       0.059700
     37 H242       -42.0950   -30.9580     0.5820 hc         1 RW5       0.059700
     38 H111       -48.3080   -28.4790     7.3860 hn         1 RW5       0.367000
     39 C01        -41.0930   -33.5570     0.8530 c3         1 RW5      -0.085100
     40 C06        -45.4450   -30.0430     2.6270 c          1 RW5       0.517600
     41 H141       -43.4820   -28.8590     6.5880 h5         1 RW5       0.054100
     42 H013       -40.8660   -34.4580     1.4340 hc         1 RW5       0.035700
     43 H012       -41.0360   -33.8260    -0.2090 hc         1 RW5       0.035700
     44 H011       -40.3050   -32.8210     1.0530 hc         1 RW5       0.035700
@<TRIPOS>BOND
     1     1     2 1   
     2     1     7 2   
     3     1    22 1   
     4     2    16 1   
     5     2    17 1   
     6     2    23 1   
     7     3    19 ar  
     8     3    20 ar  
     9     3    41 1   
    10     4    12 ar  
    11     4    18 1   
    12     4    19 ar  
    13     5    13 2   
    14     5    18 1   
    15     5    24 1   
    16     6     7 1   
    17     6    14 2   
    18     6    25 1   
    19     7    26 1   
    20     8     9 1   
    21     8    16 1   
    22     8    27 1   
    23     8    39 1   
    24     9    10 1   
    25     9    28 1   
    26     9    29 1   
    27    10    17 1   
    28    10    30 1   
    29    10    31 1   
    30    11    12 ar  
    31    11    20 ar  
    32    11    40 1   
    33    12    13 1   
    34    13    32 1   
    35    14    15 1   
    36    14    22 1   
    37    15    33 1   
    38    15    34 1   
    39    15    35 1   
    40    16    36 1   
    41    16    37 1   
    42    17    40 1   
    43    18    38 1   
    44    21    40 2   
    45    39    42 1   
    46    39    43 1   
    47    39    44 1   
@<TRIPOS>SUBSTRUCTURE
     1 RW5         1 TEMP              0 ****  ****    0 ROOT
