@<TRIPOS>MOLECULE
RW6
   44    47     1     0     0
SMALL
abcg2


@<TRIPOS>ATOM
      1 C13        -66.0640    23.5020    -2.2150 c6         1 RW6       0.172800
      2 C14        -63.9680    24.2670    -1.2420 c6         1 RW6       0.238100
      3 C15        -66.1510    25.0230    -0.2850 cc         1 RW6      -0.192300
      4 C17        -64.2870    26.1730     0.5030 cd         1 RW6      -0.119000
      5 C18        -65.2710    26.8180     1.1930 cc         1 RW6      -0.230000
      6 C12        -66.9390    24.0280    -1.0760 c6         1 RW6       0.003900
      7 C8         -61.2760    25.2190    -7.5790 ca         1 RW6       0.097100
      8 C7         -60.3920    25.2070    -6.4570 ca         1 RW6       0.157100
      9 C6         -60.7730    24.5910    -5.2820 ca         1 RW6      -0.180000
     10 C1         -63.5310    22.8200    -3.8770 cc         1 RW6       0.449900
     11 C9         -62.5080    24.6170    -7.4760 ca         1 RW6      -0.112000
     12 C5         -62.0320    23.9750    -5.1720 ca         1 RW6       0.193400
     13 C4         -62.8990    23.9950    -6.2770 ca         1 RW6      -0.197600
     14 C2         -64.1960    23.3580    -6.1630 c          1 RW6       0.575600
     15 C10        -61.6360    25.8720    -9.8420 c3         1 RW6       0.143900
     16 C11        -58.2700    25.8430    -5.5710 c3         1 RW6       0.144900
     17 C16        -64.7920    25.1400    -0.3440 cd         1 RW6      -0.111300
     18 N1         -64.4210    22.7970    -4.9160 ns         1 RW6      -0.425400
     19 N2         -62.3660    23.3750    -3.9700 nd         1 RW6      -0.623100
     20 N3         -64.7480    23.1190    -1.7040 n3         1 RW6      -0.732600
     21 O1         -65.0530    23.2870    -7.0440 o          1 RW6      -0.550000
     22 O3         -59.2100    25.8250    -6.6490 os         1 RW6      -0.323100
     23 S1         -66.8290    26.1760     0.8140 ss         1 RW6       0.178000
     24 H131       -65.9920    24.2700    -3.0000 h1         1 RW6       0.036200
     25 H132       -66.5320    22.6210    -2.6570 h1         1 RW6       0.036200
     26 H142       -63.0900    23.8930    -0.7080 h1         1 RW6       0.054200
     27 H141       -63.5880    24.8720    -2.0810 h1         1 RW6       0.054200
     28 H171       -63.2370    26.4190     0.5930 ha         1 RW6       0.134000
     29 H181       -65.1750    27.6270     1.8980 h4         1 RW6       0.151000
     30 H122       -67.8460    24.4770    -1.4890 hc         1 RW6       0.059200
     31 H121       -67.2530    23.1950    -0.4400 hc         1 RW6       0.059200
     32 H61        -60.1180    24.5690    -4.4250 ha         1 RW6       0.139000
     33 H91        -63.1980    24.6090    -8.3060 ha         1 RW6       0.143000
     34 H32        -64.6090    21.3390    -2.7680 h1         1 RW6       0.078700
     35 H31        -63.0980    21.8970    -2.0290 h1         1 RW6       0.078700
     36 H103       -61.0710    26.4070   -10.6000 h1         1 RW6       0.044700
     37 H102       -61.8540    24.8590   -10.1890 h1         1 RW6       0.044700
     38 H101       -62.5720    26.3980    -9.6370 h1         1 RW6       0.044700
     39 H112       -57.4040    26.3800    -5.9460 h1         1 RW6       0.046700
     40 H113       -58.6840    26.3630    -4.7050 h1         1 RW6       0.046700
     41 H111       -57.9850    24.8270    -5.2890 h1         1 RW6       0.046700
     42 H11        -65.3080    22.3270    -4.7950 hn         1 RW6       0.327500
     43 C3         -63.9900    22.2170    -2.5660 c3         1 RW6       0.143500
     44 O2         -60.8030    25.8440    -8.6830 os         1 RW6      -0.327100
@<TRIPOS>BOND
     1     1     6 1   
     2     1    20 1   
     3     1    24 1   
     4     1    25 1   
     5     2    17 1   
     6     2    20 1   
     7     2    26 1   
     8     2    27 1   
     9     3     6 1   
    10     3    17 2   
    11     3    23 1   
    12     4     5 2   
    13     4    17 1   
    14     4    28 1   
    15     5    23 1   
    16     5    29 1   
    17     6    30 1   
    18     6    31 1   
    19     7     8 ar  
    20     7    11 ar  
    21     7    44 1   
    22     8     9 ar  
    23     8    22 1   
    24     9    12 ar  
    25     9    32 1   
    26    10    18 1   
    27    10    19 2   
    28    10    43 1   
    29    11    13 ar  
    30    11    33 1   
    31    12    13 ar  
    32    12    19 1   
    33    13    14 1   
    34    14    18 1   
    35    14    21 2   
    36    15    36 1   
    37    15    37 1   
    38    15    38 1   
    39    15    44 1   
    40    16    22 1   
    41    16    39 1   
    42    16    40 1   
    43    16    41 1   
    44    18    42 1   
    45    20    43 1   
    46    34    43 1   
    47    35    43 1   
@<TRIPOS>SUBSTRUCTURE
     1 RW6         1 TEMP              0 ****  ****    0 ROOT
