@<TRIPOS>MOLECULE
RW6
   44    47     1     0     0
SMALL
No Charge or Current Charge


@<TRIPOS>ATOM
      1 C13        -66.1100    23.5070    -2.1930 c6         1 RW6       0.172800
      2 C14        -64.0200    24.2620    -1.1040 c6         1 RW6       0.238100
      3 C15        -66.2630    25.0620    -0.2160 cc         1 RW6      -0.192300
      4 C17        -64.3870    26.0720     0.7250 cd         1 RW6      -0.119000
      5 C18        -65.3670    26.7360     1.4200 cc         1 RW6      -0.230000
      6 C12        -67.0320    24.1060    -1.0950 c6         1 RW6       0.003900
      7 C8         -61.2160    25.1980    -7.6670 ca         1 RW6       0.097100
      8 C7         -60.3280    25.2110    -6.5670 ca         1 RW6       0.157100
      9 C6         -60.7170    24.6160    -5.3460 ca         1 RW6      -0.180000
     10 C1         -63.4840    22.8870    -3.8660 cc         1 RW6       0.449900
     11 C9         -62.4820    24.5870    -7.5270 ca         1 RW6      -0.112000
     12 C5         -61.9740    24.0090    -5.2040 ca         1 RW6       0.193400
     13 C4         -62.8560    23.9970    -6.3000 ca         1 RW6      -0.197600
     14 C2         -64.1810    23.3490    -6.1330 c          1 RW6       0.575600
     15 C10        -61.6500    25.8210   -10.0260 c3         1 RW6       0.143900
     16 C11        -58.1200    25.8790    -5.6640 c3         1 RW6       0.144900
     17 C16        -64.8930    25.1170    -0.2000 cd         1 RW6      -0.111300
     18 N1         -64.3860    22.8310    -4.9020 ns         1 RW6      -0.425400
     19 N2         -62.2730    23.4460    -3.9520 nd         1 RW6      -0.623100
     20 N3         -64.7850    23.0930    -1.6430 n3         1 RW6      -0.732600
     21 O1         -65.0260    23.2760    -7.0120 o          1 RW6      -0.550000
     22 O3         -59.0900    25.8150    -6.7240 os         1 RW6      -0.323100
     23 S1         -66.9700    26.1870     0.9370 ss         1 RW6       0.178000
     24 H131       -65.9690    24.2590    -2.9840 h1         1 RW6       0.036200
     25 H132       -66.6260    22.6500    -2.6500 h1         1 RW6       0.036200
     26 H142       -63.1400    23.9150    -0.5430 h1         1 RW6       0.054200
     27 H141       -63.6490    24.8930    -1.9250 h1         1 RW6       0.054200
     28 H171       -63.3270    26.2590     0.8680 ha         1 RW6       0.134000
     29 H181       -65.2700    27.5050     2.1760 h4         1 RW6       0.151000
     30 H122       -67.8920    24.6020    -1.5650 hc         1 RW6       0.059200
     31 H121       -67.4400    23.2880    -0.4870 hc         1 RW6       0.059200
     32 H61        -60.0510    24.6160    -4.4900 ha         1 RW6       0.139000
     33 H91        -63.1830    24.5630    -8.3570 ha         1 RW6       0.143000
     34 H32        -64.5390    21.3370    -2.8360 h1         1 RW6       0.078700
     35 H31        -63.0810    21.8750    -2.0380 h1         1 RW6       0.078700
     36 H103       -61.1330    26.3350   -10.8470 h1         1 RW6       0.044700
     37 H102       -61.8940    24.8050   -10.3620 h1         1 RW6       0.044700
     38 H101       -62.5840    26.3610    -9.8240 h1         1 RW6       0.044700
     39 H112       -57.2170    26.3980    -6.0070 h1         1 RW6       0.046700
     40 H113       -58.5190    26.4270    -4.8010 h1         1 RW6       0.046700
     41 H111       -57.8290    24.8720    -5.3390 h1         1 RW6       0.046700
     42 H11        -65.2790    22.3840    -4.7550 hn         1 RW6       0.327500
     43 C3         -63.9700    22.2380    -2.5710 c3         1 RW6       0.143500
     44 O2         -60.8140    25.7870    -8.8560 os         1 RW6      -0.327100
@<TRIPOS>BOND
     1     1     6 1   
     2     1    20 1   
     3     1    24 1   
     4     1    25 1   
     5     2    17 1   
     6     2    20 1   
     7     2    26 1   
     8     2    27 1   
     9     3     6 1   
    10     3    17 2   
    11     3    23 1   
    12     4     5 2   
    13     4    17 1   
    14     4    28 1   
    15     5    23 1   
    16     5    29 1   
    17     6    30 1   
    18     6    31 1   
    19     7     8 ar  
    20     7    11 ar  
    21     7    44 1   
    22     8     9 ar  
    23     8    22 1   
    24     9    12 ar  
    25     9    32 1   
    26    10    18 1   
    27    10    19 2   
    28    10    43 1   
    29    11    13 ar  
    30    11    33 1   
    31    12    13 ar  
    32    12    19 1   
    33    13    14 1   
    34    14    18 1   
    35    14    21 2   
    36    15    36 1   
    37    15    37 1   
    38    15    38 1   
    39    15    44 1   
    40    16    22 1   
    41    16    39 1   
    42    16    40 1   
    43    16    41 1   
    44    18    42 1   
    45    20    43 1   
    46    34    43 1   
    47    35    43 1   
@<TRIPOS>SUBSTRUCTURE
     1 RW6         1 TEMP              0 ****  ****    0 ROOT
