@<TRIPOS>MOLECULE
RW9
   53    57     1     0     0
SMALL
abcg2


@<TRIPOS>ATOM
      1 N1         -21.9680     6.8680    30.2170 n          1 RW9      -0.417800
      2 N3         -16.7650     4.0610    25.9890 nb         1 RW9      -0.657000
      3 C4         -21.8510     4.7470    28.9180 c5         1 RW9      -0.105700
      4 C5         -22.3470     4.0990    27.6150 c5         1 RW9      -0.085400
      5 C6         -21.3320     4.5410    26.5540 c5         1 RW9       0.105000
      6 C7         -20.3340     4.8780    28.6690 c          1 RW9       0.572000
      7 C8         -18.8420     4.9980    26.7530 ca         1 RW9      -0.091000
      8 C10        -16.3610     5.2660    25.6550 ca         1 RW9       0.371900
      9 C13        -17.4410     8.8250    25.6490 ca         1 RW9      -0.108000
     10 C15        -19.2210     7.4680    26.5770 ca         1 RW9      -0.107000
     11 C17        -22.1170     4.0180    30.2150 ca         1 RW9      -0.027300
     12 C20        -22.5120     2.7560    32.6930 ca         1 RW9      -0.105000
     13 C21        -22.3140     4.1250    32.6270 ca         1 RW9      -0.043000
     14 C22        -22.1170     4.7630    31.4040 ca         1 RW9      -0.127600
     15 C23        -21.8690     6.2340    31.4130 c          1 RW9       0.576600
     16 C2         -21.8450     8.3140    30.1690 c3         1 RW9       0.018000
     17 C1         -20.4340     8.8820    30.0220 c          1 RW9       0.577100
     18 O          -20.2920    10.1080    29.9840 o          1 RW9      -0.629100
     19 N          -19.4210     8.0180    29.9440 ns         1 RW9      -0.490900
     20 C          -18.0430     8.4470    29.7930 c3         1 RW9       0.095300
     21 C19        -22.4920     2.0290    31.5110 ca         1 RW9       0.143000
     22 CL         -22.7260     0.2990    31.5670 cl         1 RW9      -0.198000
     23 C18        -22.2920     2.6390    30.2810 ca         1 RW9      -0.105000
     24 C3         -22.4470     6.1610    29.0340 c6         1 RW9       0.121000
     25 O1         -19.4790     5.0910    29.5220 o          1 RW9      -0.532000
     26 N2         -20.1160     4.7710    27.3420 n          1 RW9      -0.242400
     27 C16        -18.4330     6.3090    26.3970 ca         1 RW9      -0.006000
     28 C14        -18.7310     8.6950    26.2090 ca         1 RW9      -0.078000
     29 C12        -16.6560     7.7170    25.4610 ca         1 RW9      -0.079000
     30 C11        -17.1350     6.4380    25.8280 ca         1 RW9      -0.098000
     31 C9         -18.0010     3.9380    26.5360 ca         1 RW9       0.344900
     32 H1         -23.3620     4.4060    27.3670 hc         1 RW9       0.068700
     33 H2         -22.3300     3.0150    27.6880 hc         1 RW9       0.068700
     34 H3         -21.6290     5.4620    26.0460 h1         1 RW9       0.057200
     35 H4         -21.1490     3.7750    25.8030 h1         1 RW9       0.057200
     36 H5         -15.3690     5.3550    25.2210 h4         1 RW9       0.024100
     37 H6         -17.0760     9.8060    25.3720 ha         1 RW9       0.123000
     38 H7         -20.2050     7.3880    27.0130 ha         1 RW9       0.114000
     39 H8         -22.6740     2.2610    33.6400 ha         1 RW9       0.139000
     40 H9         -22.3080     4.7160    33.5320 ha         1 RW9       0.147000
     41 H10        -22.2610     8.7460    31.0790 h1         1 RW9       0.082200
     42 H11        -22.4280     8.6870    29.3280 h1         1 RW9       0.082200
     43 H12        -19.6070     7.0230    29.9570 hn         1 RW9       0.346500
     44 H13        -17.4300     7.5660    29.6190 h1         1 RW9       0.041367
     45 H14        -17.9410     9.1230    28.9450 h1         1 RW9       0.041367
     46 H15        -17.6890     8.9580    30.6900 h1         1 RW9       0.041367
     47 H16        -22.2720     2.0300    29.3900 ha         1 RW9       0.130000
     48 H17        -22.1880     6.7540    28.1600 h1         1 RW9       0.054700
     49 H18        -23.5380     6.0690    29.0610 h1         1 RW9       0.054700
     50 H19        -19.3370     9.5790    26.3580 ha         1 RW9       0.126000
     51 H20        -15.6650     7.8020    25.0340 ha         1 RW9       0.121000
     52 H21        -18.3160     2.9390    26.8120 h4         1 RW9       0.029100
     53 O2         -21.5800     6.8350    32.4490 o          1 RW9      -0.539000
@<TRIPOS>BOND
     1     1    15 1   
     2     1    16 1   
     3     1    24 1   
     4     2     8 ar  
     5     2    31 ar  
     6     3     4 1   
     7     3     6 1   
     8     3    11 1   
     9     3    24 1   
    10     4     5 1   
    11     4    32 1   
    12     4    33 1   
    13     5    26 1   
    14     5    34 1   
    15     5    35 1   
    16     6    25 2   
    17     6    26 1   
    18     7    26 1   
    19     7    27 ar  
    20     7    31 ar  
    21     8    30 ar  
    22     8    36 1   
    23     9    28 ar  
    24     9    29 ar  
    25     9    37 1   
    26    10    27 ar  
    27    10    28 ar  
    28    10    38 1   
    29    11    14 ar  
    30    11    23 ar  
    31    12    13 ar  
    32    12    21 ar  
    33    12    39 1   
    34    13    14 ar  
    35    13    40 1   
    36    14    15 1   
    37    15    53 2   
    38    16    17 1   
    39    16    41 1   
    40    16    42 1   
    41    17    18 2   
    42    17    19 1   
    43    19    20 1   
    44    19    43 1   
    45    20    44 1   
    46    20    45 1   
    47    20    46 1   
    48    21    22 1   
    49    21    23 ar  
    50    23    47 1   
    51    24    48 1   
    52    24    49 1   
    53    27    30 ar  
    54    28    50 1   
    55    29    30 ar  
    56    29    51 1   
    57    31    52 1   
@<TRIPOS>SUBSTRUCTURE
     1 RW9         1 TEMP              0 ****  ****    0 ROOT
