@<TRIPOS>MOLECULE
RW9
   53    57     1     0     0
SMALL
No Charge or Current Charge


@<TRIPOS>ATOM
      1 N1         -21.9300     6.8240    30.6960 n          1 RW9      -0.417800
      2 N3         -16.4830     4.3780    26.8380 nb         1 RW9      -0.657000
      3 C4         -21.7730     4.9100    29.1250 c5         1 RW9      -0.105700
      4 C5         -22.2620     4.3510    27.7380 c5         1 RW9      -0.085400
      5 C6         -21.3140     5.0950    26.7520 c5         1 RW9       0.105000
      6 C7         -20.2550     4.9720    28.9210 c          1 RW9       0.572000
      7 C8         -18.7590     5.2670    26.9280 ca         1 RW9      -0.091000
      8 C10        -16.1350     5.4180    26.0510 ca         1 RW9       0.371900
      9 C13        -17.4400     8.6180    24.6720 ca         1 RW9      -0.108000
     10 C15        -19.2100     7.5020    25.9170 ca         1 RW9      -0.107000
     11 C17        -22.1650     3.9790    30.3030 ca         1 RW9      -0.027300
     12 C20        -22.8510     2.3380    32.5230 ca         1 RW9      -0.105000
     13 C21        -22.7390     3.7250    32.6820 ca         1 RW9      -0.043000
     14 C22        -22.3900     4.5510    31.5890 ca         1 RW9      -0.127600
     15 C23        -22.2120     6.0370    31.8290 c          1 RW9       0.576600
     16 C2         -21.6890     8.2990    30.8250 c3         1 RW9       0.018000
     17 C1         -20.4090     8.8440    30.1530 c          1 RW9       0.577100
     18 O          -20.2940    10.0170    29.8200 o          1 RW9      -0.629100
     19 N          -19.4100     7.9250    29.9210 ns         1 RW9      -0.490900
     20 C          -18.1380     8.2270    29.2630 c3         1 RW9       0.095300
     21 C19        -22.5910     1.7620    31.2760 ca         1 RW9       0.143000
     22 Cl         -22.6890     0.0170    31.0830 cl         1 RW9      -0.198000
     23 C18        -22.2420     2.5670    30.1820 ca         1 RW9      -0.105000
     24 C3         -22.3520     6.3240    29.3790 c6         1 RW9       0.121000
     25 O1         -19.3690     4.8930    29.7630 o          1 RW9      -0.532000
     26 N2         -20.0620     5.1560    27.5440 n          1 RW9      -0.242400
     27 C16        -18.3550     6.4080    26.1860 ca         1 RW9      -0.006000
     28 C14        -18.7550     8.5960    25.1620 ca         1 RW9      -0.078000
     29 C12        -16.5710     7.5540    24.9550 ca         1 RW9      -0.079000
     30 C11        -17.0210     6.4600    25.7200 ca         1 RW9      -0.098000
     31 C9         -17.7570     4.3320    27.2840 ca         1 RW9       0.344900
     32 H1         -23.3220     4.5460    27.5370 hc         1 RW9       0.068700
     33 H2         -22.1040     3.2790    27.5990 hc         1 RW9       0.068700
     34 H3         -21.7050     6.0920    26.5180 h1         1 RW9       0.057200
     35 H4         -21.1810     4.5460    25.8110 h1         1 RW9       0.057200
     36 H5         -15.1010     5.4350    25.7070 h4         1 RW9       0.024100
     37 H6         -17.0910     9.4670    24.0880 ha         1 RW9       0.123000
     38 H7         -20.2210     7.5370    26.3040 ha         1 RW9       0.114000
     39 H8         -23.1180     1.7100    33.3690 ha         1 RW9       0.139000
     40 H9         -22.9170     4.1580    33.6650 ha         1 RW9       0.147000
     41 H10        -21.6190     8.5830    31.8810 h1         1 RW9       0.082200
     42 H11        -22.5420     8.8370    30.3940 h1         1 RW9       0.082200
     43 H12        -19.5790     6.9770    30.2420 hn         1 RW9       0.346500
     44 H13        -17.6090     7.2900    29.0430 h1         1 RW9       0.041367
     45 H14        -18.3210     8.7650    28.3250 h1         1 RW9       0.041367
     46 H15        -17.5190     8.8460    29.9250 h1         1 RW9       0.041367
     47 H16        -22.0190     2.0580    29.2530 ha         1 RW9       0.130000
     48 H17        -22.0300     7.0240    28.5950 h1         1 RW9       0.054700
     49 H18        -23.4510     6.2850    29.3520 h1         1 RW9       0.054700
     50 H19        -19.4220     9.4310    24.9610 ha         1 RW9       0.126000
     51 H20        -15.5450     7.5870    24.5920 ha         1 RW9       0.121000
     52 H21        -18.0000     3.4800    27.9190 h4         1 RW9       0.029100
     53 O2         -22.2470     6.5180    32.9540 o          1 RW9      -0.539000
@<TRIPOS>BOND
     1     1    15 1   
     2     1    16 1   
     3     1    24 1   
     4     2     8 ar  
     5     2    31 ar  
     6     3     4 1   
     7     3     6 1   
     8     3    11 1   
     9     3    24 1   
    10     4     5 1   
    11     4    32 1   
    12     4    33 1   
    13     5    26 1   
    14     5    34 1   
    15     5    35 1   
    16     6    25 2   
    17     6    26 1   
    18     7    26 1   
    19     7    27 ar  
    20     7    31 ar  
    21     8    30 ar  
    22     8    36 1   
    23     9    28 ar  
    24     9    29 ar  
    25     9    37 1   
    26    10    27 ar  
    27    10    28 ar  
    28    10    38 1   
    29    11    14 ar  
    30    11    23 ar  
    31    12    13 ar  
    32    12    21 ar  
    33    12    39 1   
    34    13    14 ar  
    35    13    40 1   
    36    14    15 1   
    37    15    53 2   
    38    16    17 1   
    39    16    41 1   
    40    16    42 1   
    41    17    18 2   
    42    17    19 1   
    43    19    20 1   
    44    19    43 1   
    45    20    44 1   
    46    20    45 1   
    47    20    46 1   
    48    21    22 1   
    49    21    23 ar  
    50    23    47 1   
    51    24    48 1   
    52    24    49 1   
    53    27    30 ar  
    54    28    50 1   
    55    29    30 ar  
    56    29    51 1   
    57    31    52 1   
@<TRIPOS>SUBSTRUCTURE
     1 RW9         1 TEMP              0 ****  ****    0 ROOT
