@<TRIPOS>MOLECULE
RWA
   40    42     1     0     0
SMALL
No Charge or Current Charge


@<TRIPOS>ATOM
      1 N1          18.8950   -12.7410   -12.3950 nc         1 RWA      -0.189800
      2 N3          15.0540   -12.2860   -15.4210 ns         1 RWA      -0.512900
      3 C4          17.2530   -12.0120   -16.2200 c          1 RWA       0.576100
      4 C5          16.1560   -13.0790   -15.9550 c5         1 RWA       0.017400
      5 C6          15.7430   -13.7850   -17.2690 c3         1 RWA      -0.092100
      6 C7          16.6720   -14.1040   -14.9180 c3         1 RWA      -0.089700
      7 C8          17.2810   -13.4500   -13.7090 cd         1 RWA       0.185300
      8 C10         17.5440   -11.6380   -10.7450 ca         1 RWA      -0.005200
      9 C13         17.2830   -10.0300    -8.4380 ca         1 RWA      -0.102000
     10 C15         18.3480   -11.8790    -9.6100 ca         1 RWA      -0.100000
     11 N           17.6730   -12.4330   -11.8880 na         1 RWA       0.211000
     12 C           15.2760   -10.9410   -15.3310 c          1 RWA       0.569000
     13 O           14.4640   -10.1740   -14.8420 o          1 RWA      -0.553000
     14 C1          16.6640   -10.6030   -15.8950 c5         1 RWA      -0.235000
     15 C11         16.6080   -10.5800   -10.7120 ca         1 RWA      -0.100000
     16 C12         16.4790    -9.7810    -9.5630 ca         1 RWA      -0.098500
     17 C14         18.2170   -11.0780    -8.4620 ca         1 RWA      -0.098500
     18 C2          17.5000    -9.7700   -14.8480 c3         1 RWA      -0.067100
     19 C3          16.5140    -9.7810   -17.2050 c3         1 RWA      -0.067100
     20 C9          16.6310   -12.8410   -12.6710 cc         1 RWA      -0.180000
     21 N2          18.6500   -13.3870   -13.5060 nd         1 RWA      -0.344000
     22 H1          14.1660   -12.6490   -15.0910 hn         1 RWA       0.326500
     23 H2          14.9370   -14.5090   -17.0940 hc         1 RWA       0.052700
     24 H3          15.3840   -13.0620   -18.0120 hc         1 RWA       0.052700
     25 H4          16.5870   -14.3260   -17.7150 hc         1 RWA       0.052700
     26 H5          15.8540   -14.7630   -14.6040 hc         1 RWA       0.072200
     27 H6          17.4200   -14.7580   -15.3840 hc         1 RWA       0.072200
     28 H7          17.1820    -9.4100    -7.5490 ha         1 RWA       0.121000
     29 H8          19.0740   -12.6900    -9.6150 ha         1 RWA       0.136000
     30 H9          15.9840   -10.3700   -11.5780 ha         1 RWA       0.136000
     31 H10         15.7570    -8.9670    -9.5450 ha         1 RWA       0.123500
     32 H11         18.8400   -11.2710    -7.5910 ha         1 RWA       0.123500
     33 H12         17.6040   -10.3110   -13.9000 hc         1 RWA       0.050867
     34 H13         18.5100    -9.5630   -15.2210 hc         1 RWA       0.050867
     35 H14         17.0220    -8.8070   -14.6270 hc         1 RWA       0.050867
     36 H15         16.0230    -8.8170   -17.0180 hc         1 RWA       0.050867
     37 H16         17.4910    -9.5740   -17.6600 hc         1 RWA       0.050867
     38 H17         15.9110   -10.3190   -17.9470 hc         1 RWA       0.050867
     39 H18         15.5870   -12.6740   -12.4500 h4         1 RWA       0.172000
     40 O1          18.3910   -12.2260   -16.6210 o          1 RWA      -0.472100
@<TRIPOS>BOND
     1     1    11 1   
     2     1    21 2   
     3     2     4 1   
     4     2    12 1   
     5     2    22 1   
     6     3     4 1   
     7     3    14 1   
     8     3    40 2   
     9     4     5 1   
    10     4     6 1   
    11     5    23 1   
    12     5    24 1   
    13     5    25 1   
    14     6     7 1   
    15     6    26 1   
    16     6    27 1   
    17     7    20 2   
    18     7    21 1   
    19     8    10 ar  
    20     8    11 1   
    21     8    15 ar  
    22     9    16 ar  
    23     9    17 ar  
    24     9    28 1   
    25    10    17 ar  
    26    10    29 1   
    27    11    20 1   
    28    12    13 2   
    29    12    14 1   
    30    14    18 1   
    31    14    19 1   
    32    15    16 ar  
    33    15    30 1   
    34    16    31 1   
    35    17    32 1   
    36    18    33 1   
    37    18    34 1   
    38    18    35 1   
    39    19    36 1   
    40    19    37 1   
    41    19    38 1   
    42    20    39 1   
@<TRIPOS>SUBSTRUCTURE
     1 RWA         1 TEMP              0 ****  ****    0 ROOT
