@<TRIPOS>MOLECULE
RWA
   40    42     1     0     0
SMALL
abcg2


@<TRIPOS>ATOM
      1 N1          18.8140   -12.6880   -12.3430 nc         1 RWA      -0.189800
      2 N3          15.1020   -12.2290   -15.4110 ns         1 RWA      -0.512900
      3 C4          17.2210   -11.9890   -16.3060 c          1 RWA       0.576100
      4 C5          16.1670   -13.0530   -15.9660 c5         1 RWA       0.017400
      5 C6          15.7180   -13.7920   -17.2290 c3         1 RWA      -0.092100
      6 C7          16.7180   -14.0570   -14.9250 c3         1 RWA      -0.089700
      7 C8          17.2680   -13.4130   -13.6990 cd         1 RWA       0.185300
      8 C10         17.4900   -11.5770   -10.6570 ca         1 RWA      -0.005200
      9 C13         17.2520   -10.1060    -8.3210 ca         1 RWA      -0.102000
     10 C15         18.3730   -11.8120    -9.6080 ca         1 RWA      -0.100000
     11 N           17.6080   -12.3310   -11.8560 na         1 RWA       0.211000
     12 C           15.3220   -10.9000   -15.3600 c          1 RWA       0.569000
     13 O           14.5480   -10.0660   -14.9050 o          1 RWA      -0.553000
     14 C1          16.6860   -10.6020   -15.9800 c5         1 RWA      -0.235000
     15 C11         16.4920   -10.6130   -10.5540 ca         1 RWA      -0.100000
     16 C12         16.3740    -9.8830    -9.3770 ca         1 RWA      -0.098500
     17 C14         18.2520   -11.0670    -8.4420 ca         1 RWA      -0.098500
     18 C2          17.6030    -9.8590   -15.0030 c3         1 RWA      -0.067100
     19 C3          16.5060    -9.8010   -17.2820 c3         1 RWA      -0.067100
     20 C9          16.6200   -12.7640   -12.6740 cc         1 RWA      -0.180000
     21 N2          18.6070   -13.3400   -13.4510 nd         1 RWA      -0.344000
     22 H1          14.2400   -12.6310   -15.0690 hn         1 RWA       0.326500
     23 H2          14.9320   -14.5040   -16.9740 hc         1 RWA       0.052700
     24 H3          15.3290   -13.0890   -17.9660 hc         1 RWA       0.052700
     25 H4          16.5570   -14.3360   -17.6620 hc         1 RWA       0.052700
     26 H5          15.9050   -14.7400   -14.6700 hc         1 RWA       0.072200
     27 H6          17.5050   -14.6410   -15.4000 hc         1 RWA       0.072200
     28 H7          17.1580    -9.5330    -7.4080 ha         1 RWA       0.121000
     29 H8          19.1340   -12.5730    -9.7050 ha         1 RWA       0.136000
     30 H9          15.8280   -10.4260   -11.3870 ha         1 RWA       0.136000
     31 H10         15.5990    -9.1330    -9.2930 ha         1 RWA       0.123500
     32 H11         18.9350   -11.2470    -7.6220 ha         1 RWA       0.123500
     33 H12         17.7220   -10.4030   -14.0660 hc         1 RWA       0.050867
     34 H13         18.5860    -9.7230   -15.4540 hc         1 RWA       0.050867
     35 H14         17.1780    -8.8800   -14.7820 hc         1 RWA       0.050867
     36 H15         16.0570    -8.8350   -17.0510 hc         1 RWA       0.050867
     37 H16         17.4780    -9.6390   -17.7480 hc         1 RWA       0.050867
     38 H17         15.8610   -10.3270   -17.9870 hc         1 RWA       0.050867
     39 H18         15.5790   -12.6000   -12.4630 h4         1 RWA       0.172000
     40 O1          18.3050   -12.2400   -16.7700 o          1 RWA      -0.472100
@<TRIPOS>BOND
     1     1    11 1   
     2     1    21 2   
     3     2     4 1   
     4     2    12 1   
     5     2    22 1   
     6     3     4 1   
     7     3    14 1   
     8     3    40 2   
     9     4     5 1   
    10     4     6 1   
    11     5    23 1   
    12     5    24 1   
    13     5    25 1   
    14     6     7 1   
    15     6    26 1   
    16     6    27 1   
    17     7    20 2   
    18     7    21 1   
    19     8    10 ar  
    20     8    11 1   
    21     8    15 ar  
    22     9    16 ar  
    23     9    17 ar  
    24     9    28 1   
    25    10    17 ar  
    26    10    29 1   
    27    11    20 1   
    28    12    13 2   
    29    12    14 1   
    30    14    18 1   
    31    14    19 1   
    32    15    16 ar  
    33    15    30 1   
    34    16    31 1   
    35    17    32 1   
    36    18    33 1   
    37    18    34 1   
    38    18    35 1   
    39    19    36 1   
    40    19    37 1   
    41    19    38 1   
    42    20    39 1   
@<TRIPOS>SUBSTRUCTURE
     1 RWA         1 TEMP              0 ****  ****    0 ROOT
