@<TRIPOS>MOLECULE
RWB
   90    89     1     0     0
SMALL
abcg2


@<TRIPOS>ATOM
      1 C20         41.6930   123.3580    91.8890 c3         1 RWB       0.159600
      2 C18         40.0220   122.6830    93.3940 c3         1 RWB       0.163600
      3 C17         39.7530   121.7780    94.5700 c3         1 RWB       0.159600
      4 C21         43.0180   122.9430    91.3020 c3         1 RWB       0.163600
      5 C3          45.7660   120.0220    96.4890 c3         1 RWB       0.152600
      6 C6          43.6260   119.9830    94.2550 c3         1 RWB       0.124600
      7 C5          44.8220   120.8860    94.4930 c3         1 RWB       0.126600
      8 C11         42.0270   115.7940    94.0950 c3         1 RWB       0.160600
      9 C8          44.4320   117.7550    93.9720 c3         1 RWB       0.132600
     10 C12         40.6020   116.2880    94.1620 c3         1 RWB       0.153600
     11 C15         39.3110   119.5670    95.1830 c3         1 RWB       0.161600
     12 C14         39.2790   118.1400    94.6970 c3         1 RWB       0.161600
     13 C38         34.6740   114.6500    94.5560 c3         1 RWB       0.143900
     14 O37         36.0200   114.9960    94.3350 os         1 RWB      -0.455000
     15 C36         36.2370   115.7330    93.1570 c3         1 RWB       0.117600
     16 C35         36.2760   114.8490    91.9110 c3         1 RWB       0.124600
     17 O34         36.4740   115.6130    90.7450 os         1 RWB      -0.448000
     18 C33         37.8230   115.9130    90.4700 c3         1 RWB       0.116600
     19 C32         37.8930   116.8670    89.2960 c3         1 RWB       0.169600
     20 O31         37.1840   118.0740    89.4510 os         1 RWB      -0.452000
     21 C30         37.4890   118.8940    90.5530 c3         1 RWB       0.161600
     22 C29         38.8850   119.4840    90.5730 c3         1 RWB       0.119600
     23 O28         39.8140   118.5260    91.0200 os         1 RWB      -0.466000
     24 C27         41.1540   118.9610    91.0320 c3         1 RWB       0.124600
     25 C26         41.8040   118.8340    89.6570 c3         1 RWB       0.138600
     26 O25         43.2050   118.9590    89.7610 os         1 RWB      -0.450000
     27 C24         43.8110   120.0730    89.1530 c3         1 RWB       0.173600
     28 C23         44.0660   121.2250    90.1000 c3         1 RWB       0.126600
     29 O22         42.8510   121.7840    90.5250 os         1 RWB      -0.449000
     30 O19         41.3030   122.4360    92.8750 os         1 RWB      -0.443000
     31 O16         39.7350   120.4340    94.1610 os         1 RWB      -0.431000
     32 O13         40.5830   117.6500    94.5110 os         1 RWB      -0.438000
     33 O10         42.6820   116.3610    92.9850 os         1 RWB      -0.438000
     34 C9          44.0690   116.5530    93.1250 c3         1 RWB       0.157600
     35 O7          43.8970   118.9140    93.3830 os         1 RWB      -0.431000
     36 O4          45.9220   120.2660    95.1130 os         1 RWB      -0.464000
     37 C2          47.0800   119.4690    97.0040 c3         1 RWB       0.156600
     38 O1          46.9320   119.2250    98.3830 oh         1 RWB      -0.724000
     39 H1          41.8030   124.3640    92.3170 h1         1 RWB       0.028700
     40 H2          40.9400   123.4320    91.0920 h1         1 RWB       0.028700
     41 H3          39.9310   123.7200    93.7460 h1         1 RWB       0.027200
     42 H4          39.2510   122.5380    92.6230 h1         1 RWB       0.027200
     43 H5          40.5110   121.9410    95.3490 h1         1 RWB       0.026200
     44 H6          38.7850   122.0710    95.0000 h1         1 RWB       0.026200
     45 H7          43.7470   122.7790    92.1090 h1         1 RWB       0.028200
     46 H8          43.4030   123.7720    90.6910 h1         1 RWB       0.028200
     47 H9          45.5120   120.9500    97.0220 h1         1 RWB       0.032700
     48 H10         44.9620   119.3020    96.6900 h1         1 RWB       0.032700
     49 H11         43.2100   119.6150    95.2040 h1         1 RWB       0.061700
     50 H12         42.8490   120.5930    93.7880 h1         1 RWB       0.061700
     51 H13         45.1820   121.2580    93.5300 h1         1 RWB       0.046200
     52 H14         44.4830   121.7600    95.0710 h1         1 RWB       0.046200
     53 H15         42.0100   114.6990    94.0140 h1         1 RWB       0.029200
     54 H16         42.5300   116.0330    95.0390 h1         1 RWB       0.029200
     55 H17         45.5260   117.7970    94.0480 h1         1 RWB       0.025700
     56 H18         44.0550   117.6310    94.9960 h1         1 RWB       0.025700
     57 H19         40.0680   115.6850    94.9100 h1         1 RWB       0.030200
     58 H20         40.0970   116.1180    93.2000 h1         1 RWB       0.030200
     59 H21         39.9650   119.6410    96.0630 h1         1 RWB       0.024700
     60 H22         38.2980   119.8300    95.5170 h1         1 RWB       0.024700
     61 H23         38.7440   117.5450    95.4500 h1         1 RWB       0.031200
     62 H24         38.6930   118.0730    93.7680 h1         1 RWB       0.031200
     63 H25         34.6080   114.1910    95.5430 h1         1 RWB       0.029033
     64 H26         34.0210   115.5300    94.5410 h1         1 RWB       0.029033
     65 H27         34.2880   113.9320    93.8250 h1         1 RWB       0.029033
     66 H28         37.1950   116.2440    93.2820 h1         1 RWB       0.049700
     67 H29         35.4710   116.5100    93.0250 h1         1 RWB       0.049700
     68 H30         35.3230   114.3290    91.7880 h1         1 RWB       0.047700
     69 H31         37.0520   114.0810    92.0270 h1         1 RWB       0.047700
     70 H32         38.3800   115.0070    90.1930 h1         1 RWB       0.034700
     71 H33         38.3340   116.3350    91.3430 h1         1 RWB       0.034700
     72 H34         38.9520   117.0340    89.0670 h1         1 RWB       0.053200
     73 H35         37.4530   116.3850    88.4190 h1         1 RWB       0.053200
     74 H36         36.7850   119.7270    90.4940 h1         1 RWB       0.045700
     75 H37         37.2950   118.3910    91.5100 h1         1 RWB       0.045700
     76 H38         39.1340   119.8680    89.5750 h1         1 RWB       0.029200
     77 H39         38.8750   120.3500    91.2520 h1         1 RWB       0.029200
     78 H40         41.6840   118.3160    91.7330 h1         1 RWB       0.084700
     79 H41         41.2370   119.9890    91.3980 h1         1 RWB       0.084700
     80 H42         41.3910   119.5680    88.9560 h1         1 RWB       0.032700
     81 H43         41.5740   117.8410    89.2540 h1         1 RWB       0.032700
     82 H44         44.7810   119.7490    88.7650 h1         1 RWB       0.042200
     83 H45         43.2260   120.4240    88.2930 h1         1 RWB       0.042200
     84 H46         44.6590   120.8800    90.9600 h1         1 RWB       0.029700
     85 H47         44.6800   121.9650    89.5660 h1         1 RWB       0.029700
     86 H48         44.4640   116.6860    92.1150 h1         1 RWB       0.050200
     87 H49         44.5630   115.6680    93.5490 h1         1 RWB       0.050200
     88 H50         47.3250   118.5520    96.4510 h1         1 RWB       0.029200
     89 H51         47.8800   120.1920    96.8000 h1         1 RWB       0.029200
     90 H52         47.7660   118.8860    98.7190 ho         1 RWB       0.507000
@<TRIPOS>BOND
     1     1     4 1   
     2     1    30 1   
     3     1    39 1   
     4     1    40 1   
     5     2     3 1   
     6     2    30 1   
     7     2    41 1   
     8     2    42 1   
     9     3    31 1   
    10     3    43 1   
    11     3    44 1   
    12     4    29 1   
    13     4    45 1   
    14     4    46 1   
    15     5    36 1   
    16     5    37 1   
    17     5    47 1   
    18     5    48 1   
    19     6     7 1   
    20     6    35 1   
    21     6    49 1   
    22     6    50 1   
    23     7    36 1   
    24     7    51 1   
    25     7    52 1   
    26     8    10 1   
    27     8    33 1   
    28     8    53 1   
    29     8    54 1   
    30     9    34 1   
    31     9    35 1   
    32     9    55 1   
    33     9    56 1   
    34    10    32 1   
    35    10    57 1   
    36    10    58 1   
    37    11    12 1   
    38    11    31 1   
    39    11    59 1   
    40    11    60 1   
    41    12    32 1   
    42    12    61 1   
    43    12    62 1   
    44    13    14 1   
    45    13    63 1   
    46    13    64 1   
    47    13    65 1   
    48    14    15 1   
    49    15    16 1   
    50    15    66 1   
    51    15    67 1   
    52    16    17 1   
    53    16    68 1   
    54    16    69 1   
    55    17    18 1   
    56    18    19 1   
    57    18    70 1   
    58    18    71 1   
    59    19    20 1   
    60    19    72 1   
    61    19    73 1   
    62    20    21 1   
    63    21    22 1   
    64    21    74 1   
    65    21    75 1   
    66    22    23 1   
    67    22    76 1   
    68    22    77 1   
    69    23    24 1   
    70    24    25 1   
    71    24    78 1   
    72    24    79 1   
    73    25    26 1   
    74    25    80 1   
    75    25    81 1   
    76    26    27 1   
    77    27    28 1   
    78    27    82 1   
    79    27    83 1   
    80    28    29 1   
    81    28    84 1   
    82    28    85 1   
    83    33    34 1   
    84    34    86 1   
    85    34    87 1   
    86    37    38 1   
    87    37    88 1   
    88    37    89 1   
    89    38    90 1   
@<TRIPOS>SUBSTRUCTURE
     1 RWB         1 TEMP              0 ****  ****    0 ROOT
