@<TRIPOS>MOLECULE
RWB
   90    89     1     0     0
SMALL
No Charge or Current Charge


@<TRIPOS>ATOM
      1 C20         41.6910   123.2390    91.6050 c3         1 RWB       0.159600
      2 C18         40.3520   122.5510    93.5080 c3         1 RWB       0.163600
      3 C17         40.3520   121.5690    94.7040 c3         1 RWB       0.159600
      4 C21         43.0160   122.9070    90.8800 c3         1 RWB       0.163600
      5 C3          43.9630   120.0080    96.4840 c3         1 RWB       0.152600
      6 C6          43.7620   119.9580    93.4120 c3         1 RWB       0.124600
      7 C5          44.8420   120.6590    94.2880 c3         1 RWB       0.126600
      8 C11         42.4980   115.4140    93.6730 c3         1 RWB       0.160600
      9 C8          44.6350   117.6760    93.6310 c3         1 RWB       0.132600
     10 C12         41.0590   115.9780    93.7410 c3         1 RWB       0.153600
     11 C15         39.9590   119.2460    95.2610 c3         1 RWB       0.161600
     12 C14         39.7970   117.8460    94.6220 c3         1 RWB       0.161600
     13 C38         35.4380   114.5660    95.3760 c3         1 RWB       0.143900
     14 O37         36.7530   114.6540    94.7920 os         1 RWB      -0.455000
     15 C36         36.9280   115.6560    93.7650 c3         1 RWB       0.117600
     16 C35         36.1840   115.2370    92.4650 c3         1 RWB       0.124600
     17 O34         36.3020   116.2750    91.4650 os         1 RWB      -0.448000
     18 C33         37.6230   116.4890    90.9190 c3         1 RWB       0.116600
     19 C32         37.5420   117.5430    89.7800 c3         1 RWB       0.169600
     20 O31         37.0910   118.8360    90.2700 os         1 RWB      -0.452000
     21 C30         37.8750   119.5000    91.2970 c3         1 RWB       0.161600
     22 C29         39.3150   119.8110    90.8060 c3         1 RWB       0.119600
     23 O28         40.1440   118.6400    90.9730 os         1 RWB      -0.466000
     24 C27         41.5480   118.8200    90.6750 c3         1 RWB       0.124600
     25 C26         41.7330   118.9940    89.1470 c3         1 RWB       0.138600
     26 O25         43.1400   118.9460    88.8230 os         1 RWB      -0.450000
     27 C24         43.7470   120.1860    88.3790 c3         1 RWB       0.173600
     28 C23         44.0370   121.1510    89.5600 c3         1 RWB       0.126600
     29 O22         42.8180   121.7650    90.0220 os         1 RWB      -0.449000
     30 O19         41.5410   122.3420    92.7230 os         1 RWB      -0.443000
     31 O16         40.1480   120.2260    94.2230 os         1 RWB      -0.431000
     32 O13         41.0950   117.2910    94.3380 os         1 RWB      -0.438000
     33 O10         43.1970   116.0110    92.5570 os         1 RWB      -0.438000
     34 C9          44.5770   116.3690    92.7990 c3         1 RWB       0.157600
     35 O7          44.2850   118.7750    92.7670 os         1 RWB      -0.431000
     36 O4          45.0560   119.9680    95.5420 os         1 RWB      -0.464000
     37 C2          44.4270   119.3230    97.7910 c3         1 RWB       0.156600
     38 O1          43.3810   119.3480    98.7800 oh         1 RWB      -0.724000
     39 H1          41.7320   124.2780    91.9580 h1         1 RWB       0.028700
     40 H2          40.8500   123.1470    90.9060 h1         1 RWB       0.028700
     41 H3          40.3310   123.5780    93.8970 h1         1 RWB       0.027200
     42 H4          39.4490   122.3980    92.9040 h1         1 RWB       0.027200
     43 H5          41.3010   121.6490    95.2500 h1         1 RWB       0.026200
     44 H6          39.5410   121.8550    95.3870 h1         1 RWB       0.026200
     45 H7          43.7990   122.7160    91.6270 h1         1 RWB       0.028200
     46 H8          43.3260   123.7740    90.2820 h1         1 RWB       0.028200
     47 H9          43.6730   121.0460    96.6980 h1         1 RWB       0.032700
     48 H10         43.0870   119.4730    96.0970 h1         1 RWB       0.032700
     49 H11         42.8640   119.7260    93.9960 h1         1 RWB       0.061700
     50 H12         43.4570   120.6710    92.6390 h1         1 RWB       0.061700
     51 H13         45.7790   120.7090    93.7170 h1         1 RWB       0.046200
     52 H14         44.5230   121.6930    94.4770 h1         1 RWB       0.046200
     53 H15         42.4510   114.3260    93.5390 h1         1 RWB       0.029200
     54 H16         43.0030   115.6060    94.6290 h1         1 RWB       0.029200
     55 H17         45.6520   117.8100    94.0220 h1         1 RWB       0.025700
     56 H18         43.9490   117.6060    94.4850 h1         1 RWB       0.025700
     57 H19         40.4510   115.3000    94.3550 h1         1 RWB       0.030200
     58 H20         40.6200   116.0130    92.7340 h1         1 RWB       0.030200
     59 H21         40.8050   119.2380    95.9600 h1         1 RWB       0.024700
     60 H22         39.0500   119.4780    95.8310 h1         1 RWB       0.024700
     61 H23         39.2610   117.2000    95.3310 h1         1 RWB       0.031200
     62 H24         39.1930   117.9220    93.7110 h1         1 RWB       0.031200
     63 H25         35.4410   113.8500    96.2080 h1         1 RWB       0.029033
     64 H26         35.1190   115.5400    95.7690 h1         1 RWB       0.029033
     65 H27         34.6970   114.2240    94.6440 h1         1 RWB       0.029033
     66 H28         37.9980   115.7580    93.5460 h1         1 RWB       0.049700
     67 H29         36.5590   116.6330    94.1050 h1         1 RWB       0.049700
     68 H30         35.1220   115.0750    92.6880 h1         1 RWB       0.047700
     69 H31         36.5970   114.2900    92.0940 h1         1 RWB       0.047700
     70 H32         38.0120   115.5530    90.4950 h1         1 RWB       0.034700
     71 H33         38.3300   116.8220    91.6870 h1         1 RWB       0.034700
     72 H34         38.5230   117.6270    89.2970 h1         1 RWB       0.053200
     73 H35         36.8460   117.1730    89.0160 h1         1 RWB       0.053200
     74 H36         37.3960   120.4550    91.5480 h1         1 RWB       0.045700
     75 H37         37.9090   118.9140    92.2220 h1         1 RWB       0.045700
     76 H38         39.2790   120.1360    89.7580 h1         1 RWB       0.029200
     77 H39         39.7160   120.6390    91.4020 h1         1 RWB       0.029200
     78 H40         42.1160   117.9400    91.0000 h1         1 RWB       0.084700
     79 H41         41.9500   119.6910    91.2050 h1         1 RWB       0.084700
     80 H42         41.2770   119.9340    88.8110 h1         1 RWB       0.032700
     81 H43         41.2140   118.1710    88.6390 h1         1 RWB       0.032700
     82 H44         44.7050   119.9600    87.8950 h1         1 RWB       0.042200
     83 H45         43.1200   120.6890    87.6300 h1         1 RWB       0.042200
     84 H46         44.5330   120.6040    90.3730 h1         1 RWB       0.029700
     85 H47         44.7330   121.9210    89.2010 h1         1 RWB       0.029700
     86 H48         45.1040   116.5290    91.8490 h1         1 RWB       0.050200
     87 H49         45.0980   115.5660    93.3370 h1         1 RWB       0.050200
     88 H50         44.7130   118.2870    97.5670 h1         1 RWB       0.029200
     89 H51         45.3180   119.8440    98.1680 h1         1 RWB       0.029200
     90 H52         43.7390   118.9080    99.5870 ho         1 RWB       0.507000
@<TRIPOS>BOND
     1     1     4 1   
     2     1    30 1   
     3     1    39 1   
     4     1    40 1   
     5     2     3 1   
     6     2    30 1   
     7     2    41 1   
     8     2    42 1   
     9     3    31 1   
    10     3    43 1   
    11     3    44 1   
    12     4    29 1   
    13     4    45 1   
    14     4    46 1   
    15     5    36 1   
    16     5    37 1   
    17     5    47 1   
    18     5    48 1   
    19     6     7 1   
    20     6    35 1   
    21     6    49 1   
    22     6    50 1   
    23     7    36 1   
    24     7    51 1   
    25     7    52 1   
    26     8    10 1   
    27     8    33 1   
    28     8    53 1   
    29     8    54 1   
    30     9    34 1   
    31     9    35 1   
    32     9    55 1   
    33     9    56 1   
    34    10    32 1   
    35    10    57 1   
    36    10    58 1   
    37    11    12 1   
    38    11    31 1   
    39    11    59 1   
    40    11    60 1   
    41    12    32 1   
    42    12    61 1   
    43    12    62 1   
    44    13    14 1   
    45    13    63 1   
    46    13    64 1   
    47    13    65 1   
    48    14    15 1   
    49    15    16 1   
    50    15    66 1   
    51    15    67 1   
    52    16    17 1   
    53    16    68 1   
    54    16    69 1   
    55    17    18 1   
    56    18    19 1   
    57    18    70 1   
    58    18    71 1   
    59    19    20 1   
    60    19    72 1   
    61    19    73 1   
    62    20    21 1   
    63    21    22 1   
    64    21    74 1   
    65    21    75 1   
    66    22    23 1   
    67    22    76 1   
    68    22    77 1   
    69    23    24 1   
    70    24    25 1   
    71    24    78 1   
    72    24    79 1   
    73    25    26 1   
    74    25    80 1   
    75    25    81 1   
    76    26    27 1   
    77    27    28 1   
    78    27    82 1   
    79    27    83 1   
    80    28    29 1   
    81    28    84 1   
    82    28    85 1   
    83    33    34 1   
    84    34    86 1   
    85    34    87 1   
    86    37    38 1   
    87    37    88 1   
    88    37    89 1   
    89    38    90 1   
@<TRIPOS>SUBSTRUCTURE
     1 RWB         1 TEMP              0 ****  ****    0 ROOT
