@<TRIPOS>MOLECULE
RWC
   48    51     1     0     0
SMALL
abcg2


@<TRIPOS>ATOM
      1 C19        -24.3540    -0.7190    17.4580 c          1 RWC       0.667100
      2 C21        -25.3550    -2.2330    19.1040 cx         1 RWC       0.082700
      3 C22        -24.9610    -3.0030    20.3300 cx         1 RWC      -0.158400
      4 C26        -23.1050     1.4460    13.7940 ca         1 RWC      -0.039000
      5 C25        -23.5410     0.7010    14.8800 ca         1 RWC      -0.168500
      6 C23        -26.2610    -2.2270    20.2980 cx         1 RWC      -0.158400
      7 C10        -24.3210     7.0880    15.3120 ca         1 RWC      -0.141000
      8 C11        -24.8250     5.8880    14.8140 ca         1 RWC      -0.116000
      9 C16        -22.4550     2.2780    16.3480 ca         1 RWC      -0.168500
     10 C17        -23.2180     1.1120    16.1800 ca         1 RWC      -0.002000
     11 C15        -22.0510     3.0240    15.2580 ca         1 RWC      -0.039000
     12 C14        -22.3750     2.6210    13.9610 ca         1 RWC      -0.159600
     13 C13        -21.8840     3.3580    12.7630 c          1 RWC       0.618700
     14 C12        -24.0510     5.1140    13.9660 ca         1 RWC      -0.139000
     15 C02        -19.0020     6.9600    11.9160 c          1 RWC       0.715000
     16 C03        -20.0940     6.2950    12.7940 c6         1 RWC      -0.212700
     17 C04        -21.0390     5.4850    11.9020 c6         1 RWC       0.108000
     18 C06        -22.7550     5.5130    13.6270 ca         1 RWC      -0.028000
     19 C07        -22.2520     6.7390    14.0820 ca         1 RWC      -0.078300
     20 C08        -20.9070     7.2680    13.6420 c6         1 RWC      -0.027100
     21 C09        -23.0540     7.5050    14.9310 ca         1 RWC      -0.109000
     22 N05        -21.9530     4.7260    12.7590 n          1 RWC      -0.227400
     23 N18        -23.6080     0.4410    17.3370 ns         1 RWC      -0.162000
     24 N20        -24.6410    -1.0430    18.7450 ns         1 RWC      -0.501900
     25 O01        -18.1190     6.1810    11.4720 o          1 RWC      -0.724500
     26 O24        -24.7230    -1.3930    16.4950 o          1 RWC      -0.625100
     27 O27        -21.3790     2.7390    11.8220 o          1 RWC      -0.589100
     28 O28        -19.0840     8.1920    11.6890 o          1 RWC      -0.724500
     29 H211       -25.6640    -2.7880    18.2320 h1         1 RWC       0.119700
     30 H221       -24.9970    -4.0830    20.2890 hc         1 RWC       0.074450
     31 H222       -24.1590    -2.5940    20.9320 hc         1 RWC       0.074450
     32 H261       -23.3510     1.1150    12.7940 ha         1 RWC       0.131500
     33 H251       -24.1200    -0.1940    14.7300 ha         1 RWC       0.125000
     34 H231       -26.3050    -1.3150    20.8800 hc         1 RWC       0.074450
     35 H232       -27.1930    -2.7730    20.2350 hc         1 RWC       0.074450
     36 H101       -24.9180     7.7000    15.9760 ha         1 RWC       0.098000
     37 H111       -25.8240     5.5620    15.0760 ha         1 RWC       0.099000
     38 H161       -22.1870     2.5970    17.3490 ha         1 RWC       0.125000
     39 H151       -21.4740     3.9250    15.4180 ha         1 RWC       0.131500
     40 H121       -24.4490     4.1940    13.5620 ha         1 RWC       0.113000
     41 H031       -19.5840     5.5740    13.4370 hc         1 RWC       0.042700
     42 H041       -21.6190     6.1470    11.2540 h1         1 RWC       0.071200
     43 H042       -20.4920     4.7810    11.2860 h1         1 RWC       0.071200
     44 H082       -20.3330     7.5770    14.5180 hc         1 RWC       0.062700
     45 H081       -21.0690     8.1750    13.0540 hc         1 RWC       0.062700
     46 H091       -22.6660     8.4500    15.2940 ha         1 RWC       0.108000
     47 H181       -23.3120     0.8780    18.1970 hn         1 RWC       0.140000
     48 H201       -24.3280    -0.4430    19.4920 hn         1 RWC       0.307500
@<TRIPOS>BOND
     1     1    23 1   
     2     1    24 1   
     3     1    26 2   
     4     2     3 1   
     5     2     6 1   
     6     2    24 1   
     7     2    29 1   
     8     3     6 1   
     9     3    30 1   
    10     3    31 1   
    11     4     5 ar  
    12     4    12 ar  
    13     4    32 1   
    14     5    10 ar  
    15     5    33 1   
    16     6    34 1   
    17     6    35 1   
    18     7     8 ar  
    19     7    21 ar  
    20     7    36 1   
    21     8    14 ar  
    22     8    37 1   
    23     9    10 ar  
    24     9    11 ar  
    25     9    38 1   
    26    10    23 1   
    27    11    12 ar  
    28    11    39 1   
    29    12    13 1   
    30    13    22 1   
    31    13    27 2   
    32    14    18 ar  
    33    14    40 1   
    34    15    16 1   
    35    15    25 1   
    36    15    28 1   
    37    16    17 1   
    38    16    20 1   
    39    16    41 1   
    40    17    22 1   
    41    17    42 1   
    42    17    43 1   
    43    18    19 ar  
    44    18    22 1   
    45    19    20 1   
    46    19    21 ar  
    47    20    44 1   
    48    20    45 1   
    49    21    46 1   
    50    23    47 1   
    51    24    48 1   
@<TRIPOS>SUBSTRUCTURE
     1 RWC         1 TEMP              0 ****  ****    0 ROOT
