@<TRIPOS>MOLECULE
RWC
   48    51     1     0     0
SMALL
No Charge or Current Charge


@<TRIPOS>ATOM
      1 C19        -24.3200    -0.9990    17.4310 c          1 RWC       0.667100
      2 C21        -25.0570    -2.5570    19.2250 cx         1 RWC       0.082700
      3 C22        -25.1410    -2.7580    20.7170 cx         1 RWC      -0.158400
      4 C26        -23.2710     1.3500    13.6870 ca         1 RWC      -0.039000
      5 C25        -23.6290     0.5490    14.7860 ca         1 RWC      -0.168500
      6 C23        -26.3750    -2.3790    19.9360 cx         1 RWC      -0.158400
      7 C10        -24.1440     7.3720    15.4480 ca         1 RWC      -0.141000
      8 C11        -24.6820     6.1350    15.0730 ca         1 RWC      -0.116000
      9 C16        -22.6040     2.1530    16.2850 ca         1 RWC      -0.168500
     10 C17        -23.3020     0.9470    16.0990 ca         1 RWC      -0.002000
     11 C15        -22.2460     2.9560    15.1890 ca         1 RWC      -0.039000
     12 C14        -22.5920     2.5710    13.8750 ca         1 RWC      -0.159600
     13 C13        -22.2030     3.4080    12.6710 c          1 RWC       0.618700
     14 C12        -23.9790     5.3000    14.1900 ca         1 RWC      -0.139000
     15 C02        -18.9150     6.9690    11.8750 c          1 RWC       0.715000
     16 C03        -20.0300     6.3750    12.7560 c6         1 RWC      -0.212700
     17 C04        -20.9460     5.4350    11.9480 c6         1 RWC       0.108000
     18 C06        -22.7340     5.6970    13.6460 ca         1 RWC      -0.028000
     19 C07        -22.1870     6.9420    14.0550 ca         1 RWC      -0.078300
     20 C08        -20.8620     7.4610    13.4810 c6         1 RWC      -0.027100
     21 C09        -22.9020     7.7740    14.9370 ca         1 RWC      -0.109000
     22 N05        -21.9210     4.7870    12.8570 n          1 RWC      -0.227400
     23 N18        -23.6300     0.1910    17.2570 ns         1 RWC      -0.162000
     24 N20        -24.3940    -1.3720    18.7530 ns         1 RWC      -0.501900
     25 O01        -17.7580     6.7080    12.1650 o          1 RWC      -0.724500
     26 O24        -24.8210    -1.6670    16.5370 o          1 RWC      -0.625100
     27 O27        -22.0220     2.8690    11.5830 o          1 RWC      -0.589100
     28 O28        -19.2370     7.6550    10.9170 o          1 RWC      -0.724500
     29 H211       -24.9230    -3.4390    18.5930 h1         1 RWC       0.119700
     30 H221       -25.0700    -3.7770    21.0920 hc         1 RWC       0.074450
     31 H222       -24.6980    -2.0040    21.3640 hc         1 RWC       0.074450
     32 H261       -23.5350     1.0200    12.6830 ha         1 RWC       0.131500
     33 H251       -24.1570    -0.3790    14.5910 ha         1 RWC       0.125000
     34 H231       -26.7600    -1.3690    20.0520 hc         1 RWC       0.074450
     35 H232       -27.1350    -3.1420    19.7840 hc         1 RWC       0.074450
     36 H101       -24.6890     8.0200    16.1310 ha         1 RWC       0.098000
     37 H111       -25.6450     5.8190    15.4690 ha         1 RWC       0.099000
     38 H161       -22.3320     2.4730    17.2880 ha         1 RWC       0.125000
     39 H151       -21.6900     3.8740    15.3710 ha         1 RWC       0.131500
     40 H121       -24.4330     4.3520    13.9160 ha         1 RWC       0.113000
     41 H031       -19.5390     5.7700    13.5310 hc         1 RWC       0.042700
     42 H041       -21.4880     5.9980    11.1740 h1         1 RWC       0.071200
     43 H042       -20.3270     4.6790    11.4440 h1         1 RWC       0.071200
     44 H082       -20.2570     7.9150    14.2780 hc         1 RWC       0.062700
     45 H081       -21.0950     8.2750    12.7800 hc         1 RWC       0.062700
     46 H091       -22.4930     8.7400    15.2270 ha         1 RWC       0.108000
     47 H181       -23.2920     0.6030    18.1160 hn         1 RWC       0.140000
     48 H201       -23.9480    -0.7590    19.4230 hn         1 RWC       0.307500
@<TRIPOS>BOND
     1     1    23 1   
     2     1    24 1   
     3     1    26 2   
     4     2     3 1   
     5     2     6 1   
     6     2    24 1   
     7     2    29 1   
     8     3     6 1   
     9     3    30 1   
    10     3    31 1   
    11     4     5 ar  
    12     4    12 ar  
    13     4    32 1   
    14     5    10 ar  
    15     5    33 1   
    16     6    34 1   
    17     6    35 1   
    18     7     8 ar  
    19     7    21 ar  
    20     7    36 1   
    21     8    14 ar  
    22     8    37 1   
    23     9    10 ar  
    24     9    11 ar  
    25     9    38 1   
    26    10    23 1   
    27    11    12 ar  
    28    11    39 1   
    29    12    13 1   
    30    13    22 1   
    31    13    27 2   
    32    14    18 ar  
    33    14    40 1   
    34    15    16 1   
    35    15    25 1   
    36    15    28 1   
    37    16    17 1   
    38    16    20 1   
    39    16    41 1   
    40    17    22 1   
    41    17    42 1   
    42    17    43 1   
    43    18    19 ar  
    44    18    22 1   
    45    19    20 1   
    46    19    21 ar  
    47    20    44 1   
    48    20    45 1   
    49    21    46 1   
    50    23    47 1   
    51    24    48 1   
@<TRIPOS>SUBSTRUCTURE
     1 RWC         1 TEMP              0 ****  ****    0 ROOT
