@<TRIPOS>MOLECULE
RWD
   36    38     1     0     0
SMALL
No Charge or Current Charge


@<TRIPOS>ATOM
      1 N1           8.8050     4.9470    -9.5670 na         1 RWD       0.224000
      2 N3           9.1070     3.1070    -8.5390 nc         1 RWD      -0.356000
      3 C4          10.7940     0.7540   -10.3340 c3         1 RWD      -0.097100
      4 C5          11.5620     2.7250    -8.9160 c3         1 RWD      -0.093700
      5 C6          10.2950     3.5220    -9.0900 cc         1 RWD       0.199300
      6 C7          10.1440     4.7130    -9.7350 cd         1 RWD      -0.201000
      7 C8           8.2830     6.1530   -10.0370 ca         1 RWD      -0.005200
      8 C10          7.8530     7.7060   -11.8730 ca         1 RWD      -0.098000
      9 C13          7.6440     7.0420    -9.1490 ca         1 RWD      -0.100000
     10 N           12.1640     2.5520   -11.3400 ns         1 RWD      -0.510900
     11 C           13.2640     2.1610   -12.0570 c          1 RWD       0.561000
     12 O           13.8030     2.8730   -12.8870 o          1 RWD      -0.550000
     13 C1          13.7900     0.9100   -11.3760 c5         1 RWD      -0.171400
     14 C11          7.2200     8.5890   -10.9810 ca         1 RWD      -0.101000
     15 C12          7.1150     8.2570    -9.6200 ca         1 RWD      -0.098000
     16 C2          13.3690     1.1530    -9.9160 c5         1 RWD       0.169300
     17 C3          11.9310     1.7940   -10.1070 c5         1 RWD       0.087400
     18 C9           8.3830     6.4910   -11.4030 ca         1 RWD      -0.100000
     19 N2           8.1810     3.9950    -8.8160 nd         1 RWD      -0.186800
     20 H1          10.5930     0.1770    -9.4230 hc         1 RWD       0.049700
     21 H2           9.8590     1.2430   -10.6280 hc         1 RWD       0.049700
     22 H3          11.0410     0.0400   -11.1270 hc         1 RWD       0.049700
     23 H4          11.4870     2.1300    -7.9980 hc         1 RWD       0.062200
     24 H5          12.3840     3.4290    -8.7390 hc         1 RWD       0.062200
     25 H6          10.8330     5.3640   -10.2560 h4         1 RWD       0.173000
     26 H7           7.9330     7.9620   -12.9270 ha         1 RWD       0.123500
     27 H8           7.5590     6.7920    -8.0930 ha         1 RWD       0.133000
     28 H9          11.7160     3.4260   -11.5880 hn         1 RWD       0.321500
     29 H10         13.2470     0.0460   -11.7700 hc         1 RWD       0.088200
     30 H11         14.8640     0.7810   -11.5410 hc         1 RWD       0.088200
     31 H12          6.8110     9.5290   -11.3450 ha         1 RWD       0.122000
     32 H13          6.6240     8.9400    -8.9300 ha         1 RWD       0.123500
     33 H14         14.0510     1.8890    -9.4660 h1         1 RWD       0.038700
     34 H15          8.8660     5.8110   -12.1020 ha         1 RWD       0.133000
     35 O1          13.3820    -0.0510    -9.1480 oh         1 RWD      -0.642000
     36 H16         13.1800     0.1990    -8.2190 ho         1 RWD       0.451000
@<TRIPOS>BOND
     1     1     6 1   
     2     1     7 1   
     3     1    19 1   
     4     2     5 1   
     5     2    19 2   
     6     3    17 1   
     7     3    20 1   
     8     3    21 1   
     9     3    22 1   
    10     4     5 1   
    11     4    17 1   
    12     4    23 1   
    13     4    24 1   
    14     5     6 2   
    15     6    25 1   
    16     7     9 ar  
    17     7    18 ar  
    18     8    14 ar  
    19     8    18 ar  
    20     8    26 1   
    21     9    15 ar  
    22     9    27 1   
    23    10    11 1   
    24    10    17 1   
    25    10    28 1   
    26    11    12 2   
    27    11    13 1   
    28    13    16 1   
    29    13    29 1   
    30    13    30 1   
    31    14    15 ar  
    32    14    31 1   
    33    15    32 1   
    34    16    17 1   
    35    16    33 1   
    36    16    35 1   
    37    18    34 1   
    38    35    36 1   
@<TRIPOS>SUBSTRUCTURE
     1 RWD         1 TEMP              0 ****  ****    0 ROOT
