@<TRIPOS>MOLECULE
RWD
   36    38     1     0     0
SMALL
bcc


@<TRIPOS>ATOM
      1 N1           9.0680     5.1640    -9.5650 na         1 RWD       0.173300
      2 N3           9.3260     3.3330    -8.5480 nc         1 RWD      -0.356000
      3 C4          10.7600     0.8650   -10.2510 c3         1 RWD      -0.097100
      4 C5          11.7390     2.8090    -8.9540 c3         1 RWD      -0.093700
      5 C6          10.5240     3.6570    -9.0910 cc         1 RWD       0.264600
      6 C7          10.3660     4.8470    -9.7520 cd         1 RWD      -0.233600
      7 C8           8.3650     6.2980   -10.0300 ca         1 RWD      -0.005200
      8 C10          7.9910     7.9520   -11.7200 ca         1 RWD      -0.116000
      9 C13          7.3730     6.8620    -9.2370 ca         1 RWD      -0.118000
     10 N           12.2230     2.4990   -11.3530 ns         1 RWD      -0.577900
     11 C           13.1710     1.9290   -12.1220 c          1 RWD       0.703500
     12 O           13.4840     2.2760   -13.2480 o          1 RWD      -0.625500
     13 C1          13.7590     0.7800   -11.3340 c5         1 RWD      -0.171400
     14 C11          6.9930     8.5220   -10.9410 ca         1 RWD      -0.119000
     15 C12          6.6860     7.9720    -9.7030 ca         1 RWD      -0.116000
     16 C2          13.2890     1.0410    -9.9120 c5         1 RWD       0.146100
     17 C3          11.9490     1.8090   -10.1020 c5         1 RWD       0.087400
     18 C9           8.6770     6.8330   -11.2720 ca         1 RWD      -0.118000
     19 N2           8.4610     4.2370    -8.8370 nd         1 RWD      -0.186800
     20 H1          10.5300     0.3610    -9.3120 hc         1 RWD       0.049700
     21 H2           9.8690     1.4150   -10.5550 hc         1 RWD       0.049700
     22 H3          10.9500     0.1040   -11.0090 hc         1 RWD       0.049700
     23 H4          11.6760     2.2500    -8.0180 hc         1 RWD       0.062200
     24 H5          12.6210     3.4490    -8.8860 hc         1 RWD       0.062200
     25 H6          11.0570     5.4790   -10.2850 h4         1 RWD       0.191000
     26 H7           8.2320     8.3700   -12.6890 ha         1 RWD       0.141500
     27 H8           7.1460     6.4440    -8.2660 ha         1 RWD       0.151000
     28 H9          11.5930     3.1900   -11.7370 hn         1 RWD       0.321500
     29 H10         13.3440    -0.1560   -11.7220 hc         1 RWD       0.088200
     30 H11         14.8420     0.7300   -11.4410 hc         1 RWD       0.088200
     31 H12          6.4580     9.3920   -11.2960 ha         1 RWD       0.140000
     32 H13          5.9130     8.4140    -9.0880 ha         1 RWD       0.141500
     33 H14         13.9980     1.7300    -9.4330 h1         1 RWD       0.038700
     34 H15          9.4350     6.3770   -11.8950 ha         1 RWD       0.151000
     35 O1          13.1850    -0.1480    -9.1860 oh         1 RWD      -0.579800
     36 H16         13.0840     0.0640    -8.2530 ho         1 RWD       0.412000
@<TRIPOS>BOND
     1     1     6 1   
     2     1     7 1   
     3     1    19 1   
     4     2     5 1   
     5     2    19 2   
     6     3    17 1   
     7     3    20 1   
     8     3    21 1   
     9     3    22 1   
    10     4     5 1   
    11     4    17 1   
    12     4    23 1   
    13     4    24 1   
    14     5     6 2   
    15     6    25 1   
    16     7     9 ar  
    17     7    18 ar  
    18     8    14 ar  
    19     8    18 ar  
    20     8    26 1   
    21     9    15 ar  
    22     9    27 1   
    23    10    11 1   
    24    10    17 1   
    25    10    28 1   
    26    11    12 2   
    27    11    13 1   
    28    13    16 1   
    29    13    29 1   
    30    13    30 1   
    31    14    15 ar  
    32    14    31 1   
    33    15    32 1   
    34    16    17 1   
    35    16    33 1   
    36    16    35 1   
    37    18    34 1   
    38    35    36 1   
@<TRIPOS>SUBSTRUCTURE
     1 RWD         1 TEMP              0 ****  ****    0 ROOT
