@<TRIPOS>MOLECULE
RWE
   58    61     1     0     0
SMALL
abcg2


@<TRIPOS>ATOM
      1 C10         52.3480   -43.4370     8.7520 cc         1 RWE       0.390700
      2 C13         53.3400   -40.1350     9.5270 c3         1 RWE      -0.107600
      3 C15         49.0340   -38.6670     3.2690 c3         1 RWE       0.153600
      4 C20         54.4600   -41.3140    -0.1960 ca         1 RWE      -0.100000
      5 C21         55.8060   -41.3160     0.0680 ca         1 RWE      -0.107000
      6 C11         52.2570   -41.1610     9.8450 c3         1 RWE       0.109300
      7 C12         50.9350   -40.5210    10.2570 c3         1 RWE      -0.107600
      8 C14         50.3180   -39.4070     3.6100 c3         1 RWE       0.237500
      9 C16         51.5620   -38.7080     3.0410 c3         1 RWE      -0.095400
     10 C18         51.3150   -42.6880     1.2600 ca         1 RWE      -0.096000
     11 C19         52.1600   -42.0190     0.4140 ca         1 RWE      -0.101000
     12 C1          53.5570   -42.0140     0.6410 ca         1 RWE      -0.038000
     13 C2          51.8120   -43.3960     2.3790 ca         1 RWE      -0.092300
     14 C22         56.3120   -42.0200     1.1840 ca         1 RWE      -0.109000
     15 C23         55.4620   -42.7060     2.0140 ca         1 RWE      -0.096000
     16 C3          53.1630   -43.4080     2.6180 ca         1 RWE      -0.086000
     17 C4          54.0670   -42.7240     1.7700 ca         1 RWE      -0.036000
     18 C5          50.8350   -44.1340     3.2740 c3         1 RWE       0.286100
     19 C6          51.2110   -43.0330     5.4390 ca         1 RWE       0.473900
     20 C7          50.8360   -40.7550     5.6470 ca         1 RWE       0.429900
     21 C8          51.6080   -41.8200     7.4500 ca         1 RWE       0.175500
     22 C9          51.6400   -43.0450     6.7820 ca         1 RWE      -0.143600
     23 N1          51.1940   -44.1470     4.6780 nu         1 RWE      -0.927100
     24 N2          50.8040   -41.8790     4.9040 nb         1 RWE      -0.339000
     25 N3          51.2250   -40.6470     6.9310 nb         1 RWE      -0.293000
     26 N4          52.1080   -44.0470     7.6170 nd         1 RWE      -0.550100
     27 N5          52.0660   -42.0890     8.7210 na         1 RWE      -0.299300
     28 N6          50.4110   -39.6040     5.0510 nu         1 RWE      -0.909100
     29 H101        52.7290   -43.9000     9.6490 h5         1 RWE       0.060800
     30 H132        53.5240   -39.5140    10.4050 hc         1 RWE       0.051200
     31 H131        54.2720   -40.6310     9.2530 hc         1 RWE       0.051200
     32 H133        53.0340   -39.4880     8.7040 hc         1 RWE       0.051200
     33 H151        48.1790   -39.2420     3.6390 h1         1 RWE       0.031700
     34 H152        48.9490   -38.5760     2.1800 h1         1 RWE       0.031700
     35 H172        53.7090   -38.9440     2.8560 hc         1 RWE       0.038700
     36 H173        53.0570   -39.5350     4.3840 hc         1 RWE       0.038700
     37 H171        52.8250   -40.4700     2.9080 hc         1 RWE       0.038700
     38 H201        54.0670   -40.7740    -1.0500 ha         1 RWE       0.112000
     39 H211        56.4880   -40.7780    -0.5790 ha         1 RWE       0.112000
     40 H111        52.6070   -41.7930    10.6640 h1         1 RWE       0.048700
     41 H122        51.0890   -39.9080    11.1470 hc         1 RWE       0.051200
     42 H123        50.5470   -39.8850     9.4620 hc         1 RWE       0.051200
     43 H121        50.1920   -41.2860    10.4880 hc         1 RWE       0.051200
     44 H141        50.2420   -40.3980     3.1640 h1         1 RWE       0.089700
     45 H161        51.4170   -38.6000     1.9620 hc         1 RWE       0.046700
     46 H162        51.6220   -37.6970     3.4530 hc         1 RWE       0.046700
     47 H181        50.2450   -42.6650     1.0850 ha         1 RWE       0.111000
     48 H191        51.7660   -41.4690    -0.4330 ha         1 RWE       0.112000
     49 H221        57.3770   -42.0130     1.3820 ha         1 RWE       0.113000
     50 H231        55.8470   -43.2440     2.8730 ha         1 RWE       0.114000
     51 H31         53.5570   -43.9300     3.4820 ha         1 RWE       0.116000
     52 H52         49.8450   -43.6920     3.1530 h1         1 RWE       0.059200
     53 H51         50.7620   -45.1760     2.9590 h1         1 RWE       0.059200
     54 H11         51.5540   -44.9940     5.0830 hn         1 RWE       0.515000
     55 H61         50.5420   -38.7740     5.6090 hn         1 RWE       0.500000
     56 H12         48.1860   -36.9760     3.7920 ho         1 RWE       0.442000
     57 O1          49.0610   -37.3710     3.8780 oh         1 RWE      -0.673000
     58 C17         52.8610   -39.4590     3.3130 c3         1 RWE      -0.093100
@<TRIPOS>BOND
     1     1    26 2   
     2     1    27 1   
     3     1    29 1   
     4     2     6 1   
     5     2    30 1   
     6     2    31 1   
     7     2    32 1   
     8     3     8 1   
     9     3    33 1   
    10     3    34 1   
    11     3    57 1   
    12     4     5 ar  
    13     4    12 ar  
    14     4    38 1   
    15     5    14 ar  
    16     5    39 1   
    17     6     7 1   
    18     6    27 1   
    19     6    40 1   
    20     7    41 1   
    21     7    42 1   
    22     7    43 1   
    23     8     9 1   
    24     8    28 1   
    25     8    44 1   
    26     9    45 1   
    27     9    46 1   
    28     9    58 1   
    29    10    11 ar  
    30    10    13 ar  
    31    10    47 1   
    32    11    12 ar  
    33    11    48 1   
    34    12    17 ar  
    35    13    16 ar  
    36    13    18 1   
    37    14    15 ar  
    38    14    49 1   
    39    15    17 ar  
    40    15    50 1   
    41    16    17 ar  
    42    16    51 1   
    43    18    23 1   
    44    18    52 1   
    45    18    53 1   
    46    19    22 ar  
    47    19    23 1   
    48    19    24 ar  
    49    20    24 ar  
    50    20    25 ar  
    51    20    28 1   
    52    21    22 ar  
    53    21    25 ar  
    54    21    27 1   
    55    22    26 1   
    56    23    54 1   
    57    28    55 1   
    58    35    58 1   
    59    36    58 1   
    60    37    58 1   
    61    56    57 1   
@<TRIPOS>SUBSTRUCTURE
     1 RWE         1 TEMP              0 ****  ****    0 ROOT
