@<TRIPOS>MOLECULE
RWE
   58    61     1     0     0
SMALL
No Charge or Current Charge


@<TRIPOS>ATOM
      1 C10         52.1890   -43.4020     9.0800 cc         1 RWE       0.390700
      2 C13         52.7160   -39.9170     9.9250 c3         1 RWE      -0.107600
      3 C15         49.5810   -38.4470     3.1090 c3         1 RWE       0.153600
      4 C20         53.7570   -41.1240    -0.4600 ca         1 RWE      -0.100000
      5 C21         55.1520   -41.1150    -0.6270 ca         1 RWE      -0.107000
      6 C11         51.7030   -41.0730    10.0670 c3         1 RWE       0.109300
      7 C12         50.2570   -40.5670    10.2580 c3         1 RWE      -0.107600
      8 C14         50.7630   -39.3690     3.5510 c3         1 RWE       0.237500
      9 C16         52.1470   -38.7560     3.1940 c3         1 RWE      -0.095400
     10 C18         51.1910   -42.7960     1.6610 ca         1 RWE      -0.096000
     11 C19         51.7730   -41.9690     0.6850 ca         1 RWE      -0.101000
     12 C1          53.1680   -41.9600     0.5080 ca         1 RWE      -0.038000
     13 C2          51.9970   -43.6220     2.4710 ca         1 RWE      -0.092300
     14 C22         55.9630   -41.9400     0.1710 ca         1 RWE      -0.109000
     15 C23         55.3800   -42.7760     1.1390 ca         1 RWE      -0.096000
     16 C3          53.3940   -43.6170     2.2860 ca         1 RWE      -0.086000
     17 C4          53.9820   -42.7890     1.3110 ca         1 RWE      -0.036000
     18 C5          51.3580   -44.5120     3.5370 c3         1 RWE       0.286100
     19 C6          51.6180   -43.0080     5.6060 ca         1 RWE       0.473900
     20 C7          51.0440   -40.7990     5.6710 ca         1 RWE       0.429900
     21 C8          51.5670   -41.7850     7.6550 ca         1 RWE       0.175500
     22 C9          51.7990   -42.9710     7.0030 ca         1 RWE      -0.143600
     23 N1          51.8280   -44.1840     4.8960 nu         1 RWE      -0.927100
     24 N2          51.2300   -41.9110     4.9360 nb         1 RWE      -0.339000
     25 N3          51.1830   -40.6710     7.0030 nb         1 RWE      -0.293000
     26 N4          52.1880   -44.0000     7.8730 nd         1 RWE      -0.550100
     27 N5          51.8160   -42.0610     8.9740 na         1 RWE      -0.299300
     28 N6          50.6720   -39.6470     5.0020 nu         1 RWE      -0.909100
     29 H101        52.4400   -43.8650    10.0270 h5         1 RWE       0.060800
     30 H132        52.6880   -39.2720    10.8120 hc         1 RWE       0.051200
     31 H131        53.7350   -40.3090     9.8230 hc         1 RWE       0.051200
     32 H133        52.4950   -39.2980     9.0480 hc         1 RWE       0.051200
     33 H151        48.6410   -39.0000     3.2420 h1         1 RWE       0.031700
     34 H152        49.6810   -38.2320     2.0360 h1         1 RWE       0.031700
     35 H172        54.2780   -39.2210     3.0770 hc         1 RWE       0.038700
     36 H173        53.5060   -39.7900     4.5690 hc         1 RWE       0.038700
     37 H171        53.2270   -40.6520     3.0410 hc         1 RWE       0.038700
     38 H201        53.1360   -40.4820    -1.0800 ha         1 RWE       0.112000
     39 H211        55.6050   -40.4670    -1.3750 ha         1 RWE       0.112000
     40 H111        51.9690   -41.6050    10.9900 h1         1 RWE       0.048700
     41 H122        50.1870   -39.9340    11.1500 hc         1 RWE       0.051200
     42 H123        49.9230   -39.9780     9.3960 hc         1 RWE       0.051200
     43 H121        49.5680   -41.4110    10.3870 hc         1 RWE       0.051200
     44 H141        50.6490   -40.3020     2.9800 h1         1 RWE       0.089700
     45 H161        52.1530   -38.5200     2.1230 hc         1 RWE       0.046700
     46 H162        52.2780   -37.8040     3.7230 hc         1 RWE       0.046700
     47 H181        50.1110   -42.7900     1.7920 ha         1 RWE       0.111000
     48 H191        51.1380   -41.3330     0.0720 ha         1 RWE       0.112000
     49 H221        57.0430   -41.9310     0.0410 ha         1 RWE       0.113000
     50 H231        56.0140   -43.4100     1.7540 ha         1 RWE       0.114000
     51 H31         54.0210   -44.2510     2.9100 ha         1 RWE       0.116000
     52 H52         50.2640   -44.4190     3.4890 h1         1 RWE       0.059200
     53 H51         51.6020   -45.5590     3.3040 h1         1 RWE       0.059200
     54 H11         52.0930   -44.9630     5.4990 hn         1 RWE       0.515000
     55 H61         50.4810   -38.8410     5.5960 hn         1 RWE       0.500000
     56 H12         48.7560   -36.7130     3.5470 ho         1 RWE       0.442000
     57 O1          49.5380   -37.2170     3.8650 oh         1 RWE      -0.673000
     58 C17         53.3630   -39.6620     3.4890 c3         1 RWE      -0.093100
@<TRIPOS>BOND
     1     1    26 2   
     2     1    27 1   
     3     1    29 1   
     4     2     6 1   
     5     2    30 1   
     6     2    31 1   
     7     2    32 1   
     8     3     8 1   
     9     3    33 1   
    10     3    34 1   
    11     3    57 1   
    12     4     5 ar  
    13     4    12 ar  
    14     4    38 1   
    15     5    14 ar  
    16     5    39 1   
    17     6     7 1   
    18     6    27 1   
    19     6    40 1   
    20     7    41 1   
    21     7    42 1   
    22     7    43 1   
    23     8     9 1   
    24     8    28 1   
    25     8    44 1   
    26     9    45 1   
    27     9    46 1   
    28     9    58 1   
    29    10    11 ar  
    30    10    13 ar  
    31    10    47 1   
    32    11    12 ar  
    33    11    48 1   
    34    12    17 ar  
    35    13    16 ar  
    36    13    18 1   
    37    14    15 ar  
    38    14    49 1   
    39    15    17 ar  
    40    15    50 1   
    41    16    17 ar  
    42    16    51 1   
    43    18    23 1   
    44    18    52 1   
    45    18    53 1   
    46    19    22 ar  
    47    19    23 1   
    48    19    24 ar  
    49    20    24 ar  
    50    20    25 ar  
    51    20    28 1   
    52    21    22 ar  
    53    21    25 ar  
    54    21    27 1   
    55    22    26 1   
    56    23    54 1   
    57    28    55 1   
    58    35    58 1   
    59    36    58 1   
    60    37    58 1   
    61    56    57 1   
@<TRIPOS>SUBSTRUCTURE
     1 RWE         1 TEMP              0 ****  ****    0 ROOT
