@<TRIPOS>MOLECULE
RWF
   39    41     1     0     0
SMALL
No Charge or Current Charge


@<TRIPOS>ATOM
      1 C1          -0.5220     0.6840     1.9820 ca         1 RWF      -0.200800
      2 C2           0.7650    -0.3330    -1.5820 c3         1 RWF       0.067800
      3 C3           1.9230     0.6460    -1.9200 c3         1 RWF      -0.176400
      4 C4           3.2110     0.2810    -1.1740 c          1 RWF       0.567100
      5 C5           3.5730     1.1340     0.0420 c3         1 RWF      -0.202100
      6 C6          -0.4890    -0.1690    -2.4570 ca         1 RWF      -0.069300
      7 C7          -1.4180    -1.2300    -2.5030 ca         1 RWF      -0.103000
      8 C8          -2.5820    -1.1340    -3.2860 ca         1 RWF      -0.112500
      9 C9          -2.8330     0.0260    -4.0330 ca         1 RWF      -0.113000
     10 C10         -1.9190     1.0920    -3.9950 ca         1 RWF      -0.112500
     11 C11          0.7370    -1.5340     0.6920 c          1 RWF       0.696300
     12 C12         -0.7550     0.9980    -3.2130 ca         1 RWF      -0.103000
     13 C13          0.4060    -0.3080    -0.0940 cc         1 RWF      -0.275400
     14 C14         -0.2070     0.7450     0.5520 cd         1 RWF       0.235900
     15 C15         -1.1410     1.7420     2.6930 ca         1 RWF      -0.066000
     16 C16         -1.4110     1.6100     4.0670 ca         1 RWF      -0.137000
     17 C17         -1.0690     0.4300     4.7460 ca         1 RWF      -0.058000
     18 C18         -0.4550    -0.6200     4.0450 ca         1 RWF      -0.130000
     19 C19         -0.1860    -0.4880     2.6750 ca         1 RWF       0.195100
     20 O1           0.4140    -1.5270     2.0210 os         1 RWF      -0.335200
     21 O2           1.2770    -2.5190     0.2090 o          1 RWF      -0.478000
     22 O3           3.9280    -0.6400    -1.5420 o          1 RWF      -0.509100
     23 O4          -0.5270     1.8770    -0.1070 oh         1 RWF      -0.515100
     24 H2           1.1590    -1.3190    -1.8580 hc         1 RWF       0.090700
     25 H3C1         1.6250     1.6620    -1.6430 hc         1 RWF       0.066700
     26 H3C2         2.1220     0.5910    -2.9970 hc         1 RWF       0.066700
     27 H5C1         4.4970     0.8040     0.5310 hc         1 RWF       0.058700
     28 H5C2         3.6360     2.1830    -0.2680 hc         1 RWF       0.058700
     29 H5C3         2.7280     1.1510     0.7390 hc         1 RWF       0.058700
     30 H7          -1.2380    -2.1350    -1.9270 ha         1 RWF       0.114000
     31 H8          -3.2880    -1.9610    -3.3110 ha         1 RWF       0.110500
     32 H9          -3.7330     0.1010    -4.6390 ha         1 RWF       0.110000
     33 H10         -2.1140     1.9940    -4.5710 ha         1 RWF       0.110500
     34 H12         -0.0730     1.8430    -3.1970 ha         1 RWF       0.114000
     35 H15         -1.4190     2.6730     2.2060 ha         1 RWF       0.107000
     36 H16         -1.8860     2.4260     4.6070 ha         1 RWF       0.123000
     37 H17         -1.2790     0.3290     5.8090 ha         1 RWF       0.124000
     38 H18         -0.1870    -1.5370     4.5630 ha         1 RWF       0.143000
     39 H4          -0.9940     2.4490     0.5310 ho         1 RWF       0.476000
@<TRIPOS>BOND
     1     1    14 1   
     2     1    15 ar  
     3     1    19 ar  
     4     2     3 1   
     5     2     6 1   
     6     2    13 1   
     7     2    24 1   
     8     3     4 1   
     9     3    25 1   
    10     3    26 1   
    11     4     5 1   
    12     4    22 2   
    13     5    27 1   
    14     5    28 1   
    15     5    29 1   
    16     6     7 ar  
    17     6    12 ar  
    18     7     8 ar  
    19     7    30 1   
    20     8     9 ar  
    21     8    31 1   
    22     9    10 ar  
    23     9    32 1   
    24    10    12 ar  
    25    10    33 1   
    26    11    13 1   
    27    11    20 1   
    28    11    21 2   
    29    12    34 1   
    30    13    14 2   
    31    14    23 1   
    32    15    16 ar  
    33    15    35 1   
    34    16    17 ar  
    35    16    36 1   
    36    17    18 ar  
    37    17    37 1   
    38    18    19 ar  
    39    18    38 1   
    40    19    20 1   
    41    23    39 1   
@<TRIPOS>SUBSTRUCTURE
     1 RWF         1 TEMP              0 ****  ****    0 ROOT
