@<TRIPOS>MOLECULE
RWF
   39    41     1     0     0
SMALL
bcc


@<TRIPOS>ATOM
      1 C1          -0.6490     0.5500     2.0720 ca         1 RWF      -0.200800
      2 C2           0.7310    -0.3140    -1.4240 c3         1 RWF       0.067800
      3 C3           1.8450     0.7060    -1.6480 c3         1 RWF      -0.176400
      4 C4           3.0860     0.4670    -0.8260 c          1 RWF       0.567100
      5 C5           4.0970     1.5800    -0.8590 c3         1 RWF      -0.202100
      6 C6          -0.4670    -0.1350    -2.3410 ca         1 RWF      -0.069300
      7 C7          -1.3850    -1.1810    -2.4350 ca         1 RWF      -0.121000
      8 C8          -2.4990    -1.0880    -3.2540 ca         1 RWF      -0.130500
      9 C9          -2.7180     0.0630    -4.0030 ca         1 RWF      -0.131000
     10 C10         -1.8100     1.1080    -3.9230 ca         1 RWF      -0.130500
     11 C11          0.4510    -1.6550     0.7050 c          1 RWF       0.771800
     12 C12         -0.6950     1.0100    -3.0970 ca         1 RWF      -0.121000
     13 C13          0.2920    -0.3940     0.0220 cc         1 RWF      -0.275400
     14 C14         -0.2740     0.6560     0.6770 cd         1 RWF       0.235900
     15 C15         -1.2050     1.5880     2.8290 ca         1 RWF      -0.084000
     16 C16         -1.5080     1.4010     4.1610 ca         1 RWF      -0.155000
     17 C17         -1.2600     0.1700     4.7660 ca         1 RWF      -0.076000
     18 C18         -0.7140    -0.8700     4.0410 ca         1 RWF      -0.148000
     19 C19         -0.4140    -0.6710     2.6990 ca         1 RWF       0.195100
     20 O1           0.1120    -1.7110     2.0230 os         1 RWF      -0.335200
     21 O2           0.8470    -2.6880     0.2190 o          1 RWF      -0.553500
     22 O3           3.2590    -0.5440    -0.1840 o          1 RWF      -0.509100
     23 O4          -0.4660     1.7860     0.0110 oh         1 RWF      -0.476100
     24 H2           1.1500    -1.2920    -1.6690 hc         1 RWF       0.090700
     25 H3C1         1.5180     1.7350    -1.4820 hc         1 RWF       0.066700
     26 H3C2         2.1620     0.6790    -2.6980 hc         1 RWF       0.066700
     27 H5C1         5.0550     1.2630    -0.4520 hc         1 RWF       0.058700
     28 H5C2         4.2350     1.9580    -1.8730 hc         1 RWF       0.058700
     29 H5C3         3.7240     2.4160    -0.2620 hc         1 RWF       0.058700
     30 H7          -1.2200    -2.0870    -1.8620 ha         1 RWF       0.132000
     31 H8          -3.1950    -1.9150    -3.3120 ha         1 RWF       0.128500
     32 H9          -3.5860     0.1400    -4.6460 ha         1 RWF       0.128000
     33 H10         -1.9680     2.0090    -4.5020 ha         1 RWF       0.128500
     34 H12         -0.0080     1.8440    -3.0550 ha         1 RWF       0.132000
     35 H15         -1.4070     2.5580     2.3920 ha         1 RWF       0.125000
     36 H16         -1.9360     2.2130     4.7330 ha         1 RWF       0.141000
     37 H17         -1.4960     0.0230     5.8120 ha         1 RWF       0.142000
     38 H18         -0.5160    -1.8300     4.4990 ha         1 RWF       0.161000
     39 H4          -0.8940     2.4700     0.5380 ho         1 RWF       0.437000
@<TRIPOS>BOND
     1     1    14 1   
     2     1    15 ar  
     3     1    19 ar  
     4     2     3 1   
     5     2     6 1   
     6     2    13 1   
     7     2    24 1   
     8     3     4 1   
     9     3    25 1   
    10     3    26 1   
    11     4     5 1   
    12     4    22 2   
    13     5    27 1   
    14     5    28 1   
    15     5    29 1   
    16     6     7 ar  
    17     6    12 ar  
    18     7     8 ar  
    19     7    30 1   
    20     8     9 ar  
    21     8    31 1   
    22     9    10 ar  
    23     9    32 1   
    24    10    12 ar  
    25    10    33 1   
    26    11    13 1   
    27    11    20 1   
    28    11    21 2   
    29    12    34 1   
    30    13    14 2   
    31    14    23 1   
    32    15    16 ar  
    33    15    35 1   
    34    16    17 ar  
    35    16    36 1   
    36    17    18 ar  
    37    17    37 1   
    38    18    19 ar  
    39    18    38 1   
    40    19    20 1   
    41    23    39 1   
@<TRIPOS>SUBSTRUCTURE
     1 RWF         1 TEMP              0 ****  ****    0 ROOT
