@<TRIPOS>MOLECULE
RWG
   34    36     1     0     0
SMALL
abcg2


@<TRIPOS>ATOM
      1 N1          15.3420   -13.0060   -13.0420 nc         1 RWG      -0.349000
      2 N3          16.5950   -11.9670   -11.6580 na         1 RWG       0.213000
      3 C4          14.6230   -11.6580   -16.0210 c3         1 RWG      -0.090100
      4 C5          16.6810   -12.9130   -15.1610 c3         1 RWG      -0.090700
      5 C6          16.4660   -12.6270   -13.7150 cc         1 RWG       0.197300
      6 C7          17.2760   -11.9580   -12.8280 cd         1 RWG      -0.189000
      7 C8          16.9860   -11.4370   -10.3990 ca         1 RWG      -0.018200
      8 C10         16.3980   -10.4260    -8.3010 ca         1 RWG      -0.135500
      9 C13         18.3310   -11.4400   -10.0410 ca         1 RWG      -0.075000
     10 N           16.8210   -10.5340   -15.8910 ns         1 RWG      -0.516900
     11 C           17.5630   -10.0590   -16.9140 c          1 RWG       0.567000
     12 O           18.1830    -9.0030   -16.9190 o          1 RWG      -0.544000
     13 C1          17.4840   -11.0580   -18.0520 c5         1 RWG      -0.279400
     14 C11         17.7400   -10.4330    -7.9640 ca         1 RWG       0.175000
     15 C12         18.7160   -10.9240    -8.8110 ca         1 RWG      -0.135500
     16 C2          16.5730   -12.1460   -17.5400 c          1 RWG       0.569100
     17 C3          16.1410   -11.8070   -16.1040 c5         1 RWG       0.021400
     18 C9          16.0190   -10.9290    -9.5380 ca         1 RWG      -0.075000
     19 F           18.1120    -9.9410    -6.7580 f          1 RWG      -0.172000
     20 N2          15.4200   -12.6120   -11.8040 nd         1 RWG      -0.187800
     21 H1          14.3320   -11.3510   -15.0160 hc         1 RWG       0.056700
     22 H2          14.2780   -10.9040   -16.7300 hc         1 RWG       0.056700
     23 H3          14.1410   -12.6090   -16.2480 hc         1 RWG       0.056700
     24 H4          16.1840   -13.8470   -15.4240 hc         1 RWG       0.072700
     25 H5          17.7490   -13.0360   -15.3490 hc         1 RWG       0.072700
     26 H6          18.2360   -11.4860   -12.9410 h4         1 RWG       0.172000
     27 H7          15.6660   -10.0250    -7.6120 ha         1 RWG       0.143000
     28 H8          19.0740   -11.8530   -10.7080 ha         1 RWG       0.138500
     29 H9          16.7130   -10.0030   -15.0380 hn         1 RWG       0.332500
     30 H10         18.4700   -11.4570   -18.2980 hc         1 RWG       0.107700
     31 H11         17.0800   -10.5970   -18.9550 hc         1 RWG       0.107700
     32 H12         19.7550   -10.9170    -8.5080 ha         1 RWG       0.143000
     33 H13         14.9800   -10.9230    -9.8350 ha         1 RWG       0.138500
     34 O1          16.2290   -13.1400   -18.1300 o          1 RWG      -0.485100
@<TRIPOS>BOND
     1     1     5 1   
     2     1    20 2   
     3     2     6 1   
     4     2     7 1   
     5     2    20 1   
     6     3    17 1   
     7     3    21 1   
     8     3    22 1   
     9     3    23 1   
    10     4     5 1   
    11     4    17 1   
    12     4    24 1   
    13     4    25 1   
    14     5     6 2   
    15     6    26 1   
    16     7     9 ar  
    17     7    18 ar  
    18     8    14 ar  
    19     8    18 ar  
    20     8    27 1   
    21     9    15 ar  
    22     9    28 1   
    23    10    11 1   
    24    10    17 1   
    25    10    29 1   
    26    11    12 2   
    27    11    13 1   
    28    13    16 1   
    29    13    30 1   
    30    13    31 1   
    31    14    15 ar  
    32    14    19 1   
    33    15    32 1   
    34    16    17 1   
    35    16    34 2   
    36    18    33 1   
@<TRIPOS>SUBSTRUCTURE
     1 RWG         1 TEMP              0 ****  ****    0 ROOT
