@<TRIPOS>MOLECULE
RWG
   34    36     1     0     0
SMALL
No Charge or Current Charge


@<TRIPOS>ATOM
      1 N1          15.5650   -13.5610   -13.0580 nc         1 RWG      -0.349000
      2 N3          16.6180   -12.3520   -11.6570 na         1 RWG       0.213000
      3 C4          14.5830   -11.6110   -15.7920 c3         1 RWG      -0.090100
      4 C5          16.6980   -12.9260   -15.2090 c3         1 RWG      -0.090700
      5 C6          16.5130   -12.8160   -13.7180 cc         1 RWG       0.197300
      6 C7          17.2010   -12.0220   -12.8510 cd         1 RWG      -0.189000
      7 C8          17.0090   -11.6480   -10.5180 ca         1 RWG      -0.018200
      8 C10         16.4440   -10.2180    -8.6200 ca         1 RWG      -0.135500
      9 C13         18.3570   -11.6580   -10.0980 ca         1 RWG      -0.075000
     10 N           16.8010   -10.4640   -15.7360 ns         1 RWG      -0.516900
     11 C           17.4540    -9.9800   -16.8420 c          1 RWG       0.567000
     12 O           17.5300    -8.7960   -17.1170 o          1 RWG      -0.544000
     13 C1          17.7860   -11.1820   -17.6950 c5         1 RWG      -0.279400
     14 C11         17.7870   -10.2300    -8.2130 ca         1 RWG       0.175000
     15 C12         18.7440   -10.9480    -8.9470 ca         1 RWG      -0.135500
     16 C2          16.4420   -11.8660   -17.5510 c          1 RWG       0.569100
     17 C3          16.1130   -11.7330   -16.0240 c5         1 RWG       0.021400
     18 C9          16.0540   -10.9270    -9.7710 ca         1 RWG      -0.075000
     19 F           18.1600    -9.5490    -7.1080 f          1 RWG      -0.172000
     20 N2          15.6080   -13.2590   -11.7820 nd         1 RWG      -0.187800
     21 H1          14.3510   -11.3860   -14.7440 hc         1 RWG       0.056700
     22 H2          14.1520   -10.8050   -16.3990 hc         1 RWG       0.056700
     23 H3          14.0630   -12.5400   -16.0560 hc         1 RWG       0.056700
     24 H4          16.2450   -13.8620   -15.5590 hc         1 RWG       0.072700
     25 H5          17.7710   -13.0350   -15.4040 hc         1 RWG       0.072700
     26 H6          17.9960   -11.3010   -12.9860 h4         1 RWG       0.172000
     27 H7          15.7100    -9.6600    -8.0450 ha         1 RWG       0.143000
     28 H8          19.1020   -12.2180   -10.6610 ha         1 RWG       0.138500
     29 H9          16.4580    -9.7740   -15.0750 hn         1 RWG       0.332500
     30 H10         18.5200   -11.7660   -17.1340 hc         1 RWG       0.107700
     31 H11         18.0670   -10.9340   -18.7210 hc         1 RWG       0.107700
     32 H12         19.7820   -10.9540    -8.6230 ha         1 RWG       0.143000
     33 H13         15.0120   -10.9140   -10.0840 ha         1 RWG       0.138500
     34 O1          15.6590   -12.1320   -18.4540 o          1 RWG      -0.485100
@<TRIPOS>BOND
     1     1     5 1   
     2     1    20 2   
     3     2     6 1   
     4     2     7 1   
     5     2    20 1   
     6     3    17 1   
     7     3    21 1   
     8     3    22 1   
     9     3    23 1   
    10     4     5 1   
    11     4    17 1   
    12     4    24 1   
    13     4    25 1   
    14     5     6 2   
    15     6    26 1   
    16     7     9 ar  
    17     7    18 ar  
    18     8    14 ar  
    19     8    18 ar  
    20     8    27 1   
    21     9    15 ar  
    22     9    28 1   
    23    10    11 1   
    24    10    17 1   
    25    10    29 1   
    26    11    12 2   
    27    11    13 1   
    28    13    16 1   
    29    13    30 1   
    30    13    31 1   
    31    14    15 ar  
    32    14    19 1   
    33    15    32 1   
    34    16    17 1   
    35    16    34 2   
    36    18    33 1   
@<TRIPOS>SUBSTRUCTURE
     1 RWG         1 TEMP              0 ****  ****    0 ROOT
