@<TRIPOS>MOLECULE
RWH
   42    43     1     0     0
SMALL
abcg2


@<TRIPOS>ATOM
      1 N1          -3.0730     3.6860    13.5390 ns         1 RWH      -0.169000
      2 C7           0.9170     7.6440    15.4550 ca         1 RWH      -0.113000
      3 C8           1.5380     7.7780    14.2200 ca         1 RWH      -0.111000
      4 N2          -5.0580     0.4850    17.4790 n8         1 RWH      -1.002100
      5 C9           0.7940     7.6890    13.0520 ca         1 RWH      -0.111500
      6 O1          -4.9460     2.8210    18.3150 o          1 RWH      -0.544500
      7 C1          -0.4600     4.1830    12.9420 c3         1 RWH       0.088300
      8 C5          -1.1930     7.3370    14.3400 ca         1 RWH      -0.111500
      9 C6          -0.4530     7.4250    15.5110 ca         1 RWH      -0.111000
     10 C4          -0.5810     7.4640    13.0950 ca         1 RWH      -0.079300
     11 C3          -1.3730     7.2880    11.8320 c3         1 RWH      -0.060100
     12 C2          -1.2440     5.8700    11.2660 c3         1 RWH       0.123000
     13 O2          -7.2130     1.8830    17.8330 o          1 RWH      -0.544500
     14 S           -5.7970     1.9650    17.5030 sy         1 RWH       1.121600
     15 C14         -5.6670     2.4290    15.7950 ca         1 RWH      -0.237500
     16 C13         -6.7760     2.3090    14.9740 ca         1 RWH      -0.049000
     17 C12         -6.6340     2.6560    13.6380 ca         1 RWH      -0.107000
     18 C11         -5.4280     3.1150    13.1370 ca         1 RWH      -0.070000
     19 C15         -4.4530     2.9050    15.3250 ca         1 RWH      -0.068000
     20 C10         -4.3220     3.2590    13.9820 ca         1 RWH      -0.023000
     21 C           -2.8530     4.5890    12.5180 c          1 RWH       0.659100
     22 O           -3.7710     5.1280    11.9160 o          1 RWH      -0.627100
     23 N           -1.5480     4.8240    12.2290 n          1 RWH      -0.420800
     24 H1          -2.3070     3.4650    14.1560 hn         1 RWH       0.155000
     25 H3           2.6050     7.9540    14.1660 ha         1 RWH       0.114000
     26 H4          -4.7790     0.1950    18.4120 hn         1 RWH       0.472000
     27 H5          -5.6330    -0.2320    17.0460 hn         1 RWH       0.472000
     28 H6           1.2890     7.7940    12.0930 ha         1 RWH       0.113000
     29 H7          -0.5530     3.0960    12.9180 h1         1 RWH       0.042033
     30 H8           0.4770     4.4370    12.4560 h1         1 RWH       0.042033
     31 H9          -0.3830     4.5120    13.9820 h1         1 RWH       0.042033
     32 H10         -2.2630     7.1690    14.3940 ha         1 RWH       0.113000
     33 H11         -0.9480     7.3220    16.4690 ha         1 RWH       0.114000
     34 H12         -1.0310     7.9850    11.0630 hc         1 RWH       0.064200
     35 H13         -2.4250     7.5080    12.0160 hc         1 RWH       0.064200
     36 H14         -1.8890     5.7690    10.3930 h1         1 RWH       0.056700
     37 H15         -0.2230     5.7060    10.9220 h1         1 RWH       0.056700
     38 H16         -7.7230     1.9480    15.3510 ha         1 RWH       0.138000
     39 H17         -7.4780     2.5570    12.9690 ha         1 RWH       0.121000
     40 H18         -5.3490     3.3490    12.0880 ha         1 RWH       0.144000
     41 H19         -3.6050     3.0060    15.9910 ha         1 RWH       0.130000
     42 H2           1.4960     7.7140    16.3670 ha         1 RWH       0.113000
@<TRIPOS>BOND
     1     1    20 1   
     2     1    21 1   
     3     1    24 1   
     4     2     3 ar  
     5     2     9 ar  
     6     2    42 1   
     7     3     5 ar  
     8     3    25 1   
     9     4    14 1   
    10     4    26 1   
    11     4    27 1   
    12     5    10 ar  
    13     5    28 1   
    14     6    14 2   
    15     7    23 1   
    16     7    29 1   
    17     7    30 1   
    18     7    31 1   
    19     8     9 ar  
    20     8    10 ar  
    21     8    32 1   
    22     9    33 1   
    23    10    11 1   
    24    11    12 1   
    25    11    34 1   
    26    11    35 1   
    27    12    23 1   
    28    12    36 1   
    29    12    37 1   
    30    13    14 2   
    31    14    15 1   
    32    15    16 ar  
    33    15    19 ar  
    34    16    17 ar  
    35    16    38 1   
    36    17    18 ar  
    37    17    39 1   
    38    18    20 ar  
    39    18    40 1   
    40    19    20 ar  
    41    19    41 1   
    42    21    22 2   
    43    21    23 1   
@<TRIPOS>SUBSTRUCTURE
     1 RWH         1 TEMP              0 ****  ****    0 ROOT
