@<TRIPOS>MOLECULE
RWH
   42    43     1     0     0
SMALL
No Charge or Current Charge


@<TRIPOS>ATOM
      1 N1          -3.3480     3.7880    13.7870 ns         1 RWH      -0.169000
      2 C7           1.3450     8.4530    14.9900 ca         1 RWH      -0.113000
      3 C8           1.9610     8.0760    13.7850 ca         1 RWH      -0.111000
      4 N2          -5.4190    -0.3750    17.0790 n8         1 RWH      -1.002100
      5 C9           1.1780     7.6570    12.6950 ca         1 RWH      -0.111500
      6 O1          -4.7340     1.6080    18.3690 o          1 RWH      -0.544500
      7 C1          -0.6510     4.4990    13.6880 c3         1 RWH       0.088300
      8 C5          -0.8380     7.9930    14.0140 ca         1 RWH      -0.111500
      9 C6          -0.0550     8.4120    15.1040 ca         1 RWH      -0.111000
     10 C4          -0.2250     7.6130    12.8040 ca         1 RWH      -0.079300
     11 C3          -1.0710     7.1400    11.6270 c3         1 RWH      -0.060100
     12 C2          -1.0550     5.6070    11.4420 c3         1 RWH       0.123000
     13 O2          -7.2040     1.0040    18.0040 o          1 RWH      -0.544500
     14 S           -5.8330     1.1460    17.5200 sy         1 RWH       1.121600
     15 C14         -5.8210     2.0100    15.9390 ca         1 RWH      -0.237500
     16 C13         -7.0040     2.1240    15.1810 ca         1 RWH      -0.049000
     17 C12         -6.9830     2.7960    13.9490 ca         1 RWH      -0.107000
     18 C11         -5.7900     3.3560    13.4630 ca         1 RWH      -0.070000
     19 C15         -4.6230     2.5730    15.4460 ca         1 RWH      -0.068000
     20 C10         -4.5950     3.2490    14.2100 ca         1 RWH      -0.023000
     21 C           -2.9630     4.4950    12.6530 c          1 RWH       0.659100
     22 O           -3.7310     4.7910    11.7470 o          1 RWH      -0.627100
     23 N           -1.5990     4.8670    12.6070 n          1 RWH      -0.420800
     24 H1          -2.5940     3.6270    14.4410 hn         1 RWH       0.155000
     25 H3           3.0450     8.1070    13.6950 ha         1 RWH       0.114000
     26 H4          -6.1760    -0.9100    17.4990 hn         1 RWH       0.472000
     27 H5          -5.6400    -0.3810    16.0860 hn         1 RWH       0.472000
     28 H6           1.6630     7.3630    11.7660 ha         1 RWH       0.113000
     29 H7          -0.6140     3.4080    13.7990 h1         1 RWH       0.042033
     30 H8           0.3590     4.8600    13.4540 h1         1 RWH       0.042033
     31 H9          -0.9710     4.9540    14.6350 h1         1 RWH       0.042033
     32 H10         -1.9200     7.9580    14.1130 ha         1 RWH       0.113000
     33 H11         -0.5330     8.7020    16.0370 ha         1 RWH       0.114000
     34 H12         -0.7090     7.6050    10.7020 hc         1 RWH       0.064200
     35 H13         -2.1100     7.4700    11.7420 hc         1 RWH       0.064200
     36 H14         -1.6250     5.3490    10.5400 h1         1 RWH       0.056700
     37 H15         -0.0220     5.2810    11.2630 h1         1 RWH       0.056700
     38 H16         -7.9390     1.6970    15.5410 ha         1 RWH       0.138000
     39 H17         -7.8980     2.8830    13.3660 ha         1 RWH       0.121000
     40 H18         -5.8180     3.8670    12.5060 ha         1 RWH       0.144000
     41 H19         -3.7060     2.4850    16.0270 ha         1 RWH       0.130000
     42 H2           1.9510     8.7770    15.8330 ha         1 RWH       0.113000
@<TRIPOS>BOND
     1     1    20 1   
     2     1    21 1   
     3     1    24 1   
     4     2     3 ar  
     5     2     9 ar  
     6     2    42 1   
     7     3     5 ar  
     8     3    25 1   
     9     4    14 1   
    10     4    26 1   
    11     4    27 1   
    12     5    10 ar  
    13     5    28 1   
    14     6    14 2   
    15     7    23 1   
    16     7    29 1   
    17     7    30 1   
    18     7    31 1   
    19     8     9 ar  
    20     8    10 ar  
    21     8    32 1   
    22     9    33 1   
    23    10    11 1   
    24    11    12 1   
    25    11    34 1   
    26    11    35 1   
    27    12    23 1   
    28    12    36 1   
    29    12    37 1   
    30    13    14 2   
    31    14    15 1   
    32    15    16 ar  
    33    15    19 ar  
    34    16    17 ar  
    35    16    38 1   
    36    17    18 ar  
    37    17    39 1   
    38    18    20 ar  
    39    18    40 1   
    40    19    20 ar  
    41    19    41 1   
    42    21    22 2   
    43    21    23 1   
@<TRIPOS>SUBSTRUCTURE
     1 RWH         1 TEMP              0 ****  ****    0 ROOT
