@<TRIPOS>MOLECULE
RWL
   26    28     1     0     0
SMALL
abcg2


@<TRIPOS>ATOM
      1 C17        -45.7500   -29.4210     3.6890 ca         1 RWL       0.168500
      2 C14        -44.5000   -26.2490     0.2950 cc         1 RWL       0.506400
      3 C12        -43.0600   -28.0150     1.0800 cc         1 RWL      -0.229000
      4 C11        -44.3790   -28.3340     0.9710 cd         1 RWL       0.262300
      5 C10        -44.9860   -29.6660     1.2940 c3         1 RWL       0.073300
      6 C02        -44.7090   -29.2250     5.6410 ca         1 RWL       0.413900
      7 C04        -47.0290   -29.1590     5.6760 ca         1 RWL       0.474900
      8 C06        -47.0090   -29.3220     4.2770 ca         1 RWL      -0.134600
      9 C08        -47.3580   -29.5500     2.1860 cc         1 RWL       0.412700
     10 N01        -43.5630   -29.2200     6.3860 nv         1 RWL      -1.046900
     11 N03        -45.8620   -29.1100     6.3330 nb         1 RWL      -0.348000
     12 N05        -48.1750   -29.0720     6.3780 nv         1 RWL      -1.061900
     13 N07        -48.0050   -29.4060     3.3140 nd         1 RWL      -0.545100
     14 N09        -45.9880   -29.5740     2.3450 na         1 RWL      -0.294300
     15 N16        -45.1930   -27.3140     0.5200 nd         1 RWL      -0.620000
     16 N18        -44.5710   -29.3790     4.3150 nb         1 RWL      -0.288000
     17 S13        -42.8000   -26.3800     0.6010 ss         1 RWL       0.009600
     18 H121       -42.2470   -28.6370     1.4160 h4         1 RWL       0.170000
     19 H102       -45.4780   -30.0780     0.4120 h1         1 RWL       0.075700
     20 H101       -44.2090   -30.3600     1.6080 h1         1 RWL       0.075700
     21 H081       -47.8030   -29.6490     1.2080 h5         1 RWL       0.068800
     22 H012       -42.7040   -29.0370     5.8940 hn         1 RWL       0.482500
     23 H011       -43.6300   -28.8440     7.3180 hn         1 RWL       0.482500
     24 H052       -48.1350   -28.8230     7.3530 hn         1 RWL       0.501500
     25 H051       -49.0500   -28.9590     5.8940 hn         1 RWL       0.501500
     26 CL15       -45.1790   -24.7750    -0.2750 cl         1 RWL      -0.110000
@<TRIPOS>BOND
     1     1     8 ar  
     2     1    14 1   
     3     1    16 ar  
     4     2    15 2   
     5     2    17 1   
     6     2    26 1   
     7     3     4 2   
     8     3    17 1   
     9     3    18 1   
    10     4     5 1   
    11     4    15 1   
    12     5    14 1   
    13     5    19 1   
    14     5    20 1   
    15     6    10 1   
    16     6    11 ar  
    17     6    16 ar  
    18     7     8 ar  
    19     7    11 ar  
    20     7    12 1   
    21     8    13 1   
    22     9    13 2   
    23     9    14 1   
    24     9    21 1   
    25    10    22 1   
    26    10    23 1   
    27    12    24 1   
    28    12    25 1   
@<TRIPOS>SUBSTRUCTURE
     1 RWL         1 TEMP              0 ****  ****    0 ROOT
