@<TRIPOS>MOLECULE
RWL
   26    28     1     0     0
SMALL
No Charge or Current Charge


@<TRIPOS>ATOM
      1 C17        -45.7200   -29.4630     3.7090 ca         1 RWL       0.168500
      2 C14        -44.4120   -26.3780    -0.3520 cc         1 RWL       0.506400
      3 C12        -43.4180   -27.5330     1.5090 cc         1 RWL      -0.229000
      4 C11        -44.4560   -28.2030     0.9000 cd         1 RWL       0.262300
      5 C10        -44.9900   -29.5480     1.3250 c3         1 RWL       0.073300
      6 C02        -44.6840   -29.4900     5.7280 ca         1 RWL       0.413900
      7 C04        -46.9420   -29.2870     5.7450 ca         1 RWL       0.474900
      8 C06        -46.9340   -29.3310     4.3370 ca         1 RWL      -0.134600
      9 C08        -47.4000   -29.3390     2.2280 cc         1 RWL       0.412700
     10 N01        -43.5360   -29.5700     6.4360 nv         1 RWL      -1.046900
     11 N03        -45.8070   -29.3630     6.4530 nb         1 RWL      -0.348000
     12 N05        -48.0850   -29.1540     6.4650 nv         1 RWL      -1.061900
     13 N07        -48.0030   -29.2520     3.4310 nd         1 RWL      -0.545100
     14 N09        -46.0190   -29.4750     2.3780 na         1 RWL      -0.294300
     15 N16        -45.0320   -27.5360    -0.1740 nd         1 RWL      -0.620000
     16 N18        -44.5610   -29.5450     4.3900 nb         1 RWL      -0.288000
     17 S13        -43.1070   -26.0020     0.7390 ss         1 RWL       0.009600
     18 H121       -42.8250   -27.8400     2.3600 h4         1 RWL       0.170000
     19 H102       -45.4180   -30.0530     0.4490 h1         1 RWL       0.075700
     20 H101       -44.1550   -30.1640     1.6790 h1         1 RWL       0.075700
     21 H081       -47.8830   -29.3080     1.2580 h5         1 RWL       0.068800
     22 H012       -42.6550   -29.4470     5.9430 hn         1 RWL       0.482500
     23 H011       -43.5540   -29.3160     7.4200 hn         1 RWL       0.482500
     24 H052       -48.0050   -28.8310     7.4250 hn         1 RWL       0.501500
     25 H051       -48.9180   -28.8690     5.9550 hn         1 RWL       0.501500
     26 Cl15       -44.8530   -25.2600    -1.6060 cl         1 RWL      -0.110000
@<TRIPOS>BOND
     1     1     8 ar  
     2     1    14 1   
     3     1    16 ar  
     4     2    15 2   
     5     2    17 1   
     6     2    26 1   
     7     3     4 2   
     8     3    17 1   
     9     3    18 1   
    10     4     5 1   
    11     4    15 1   
    12     5    14 1   
    13     5    19 1   
    14     5    20 1   
    15     6    10 1   
    16     6    11 ar  
    17     6    16 ar  
    18     7     8 ar  
    19     7    11 ar  
    20     7    12 1   
    21     8    13 1   
    22     9    13 2   
    23     9    14 1   
    24     9    21 1   
    25    10    22 1   
    26    10    23 1   
    27    12    24 1   
    28    12    25 1   
@<TRIPOS>SUBSTRUCTURE
     1 RWL         1 TEMP              0 ****  ****    0 ROOT
