@<TRIPOS>MOLECULE
RWM
   34    36     1     0     0
SMALL
bcc


@<TRIPOS>ATOM
      1 N1          18.6080   -12.2580   -12.5060 nc         1 RWM      -0.355300
      2 C4          15.9940   -13.0520   -17.6140 c3         1 RWM      -0.095100
      3 C5          16.6150   -13.5190   -15.2190 c3         1 RWM      -0.119700
      4 C6          17.0690   -12.9630   -13.9200 cc         1 RWM       0.274000
      5 C7          16.4040   -12.4810   -12.8440 cd         1 RWM      -0.381600
      6 C8          17.4370   -12.0420   -11.9710 cd         1 RWM       0.399800
      7 C10         18.4360   -11.0440    -9.9210 ca         1 RWM      -0.097000
      8 C13         15.9120   -10.6360    -8.8420 ca         1 RWM      -0.134500
      9 N           17.6530   -11.6420   -16.4530 ns         1 RWM      -0.580900
     10 C           17.5700   -10.3330   -16.1450 c          1 RWM       0.719500
     11 O           18.4780    -9.5270   -16.2100 o          1 RWM      -0.603500
     12 C1          16.1510   -10.0480   -15.7160 c5         1 RWM      -0.284400
     13 C11         18.3010   -10.4630    -8.6710 ca         1 RWM      -0.134500
     14 C12         17.0380   -10.2560    -8.1270 ca         1 RWM      -0.111000
     15 C14         16.0440   -11.2170   -10.0950 ca         1 RWM      -0.097000
     16 C2          15.4500   -11.3720   -15.8230 c          1 RWM       0.577100
     17 C3          16.4510   -12.4300   -16.3000 c5         1 RWM       0.020400
     18 C9          17.3070   -11.4280   -10.6470 ca         1 RWM      -0.143500
     19 O1          18.3830   -12.8290   -13.7160 os         1 RWM      -0.107100
     20 H1          15.0510   -13.5820   -17.4830 hc         1 RWM       0.054367
     21 H2          15.8600   -12.2890   -18.3810 hc         1 RWM       0.054367
     22 H3          16.7360   -13.7670   -17.9710 hc         1 RWM       0.054367
     23 H4          15.6600   -14.0260   -15.0790 hc         1 RWM       0.080700
     24 H5          17.3240   -14.2680   -15.5800 hc         1 RWM       0.080700
     25 H6          15.3380   -12.4510   -12.6960 ha         1 RWM       0.176000
     26 H7          19.4240   -11.1980   -10.3340 ha         1 RWM       0.141500
     27 H8          14.9250   -10.4790    -8.4280 ha         1 RWM       0.134500
     28 H9          18.5160   -12.0490   -16.7820 hn         1 RWM       0.336500
     29 H10         16.1110    -9.6610   -14.6950 hc         1 RWM       0.110700
     30 H11         15.6870    -9.2950   -16.3590 hc         1 RWM       0.110700
     31 H12         19.1850   -10.1720    -8.1180 ha         1 RWM       0.134500
     32 H13         16.9340    -9.8000    -7.1510 ha         1 RWM       0.133000
     33 H14         15.1530   -11.5040   -10.6380 ha         1 RWM       0.141500
     34 O2          14.2980   -11.6080   -15.5790 o          1 RWM      -0.489100
@<TRIPOS>BOND
     1     1     6 2   
     2     1    19 1   
     3     2    17 1   
     4     2    20 1   
     5     2    21 1   
     6     2    22 1   
     7     3     4 1   
     8     3    17 1   
     9     3    23 1   
    10     3    24 1   
    11     4     5 2   
    12     4    19 1   
    13     5     6 1   
    14     5    25 1   
    15     6    18 1   
    16     7    13 ar  
    17     7    18 ar  
    18     7    26 1   
    19     8    14 ar  
    20     8    15 ar  
    21     8    27 1   
    22     9    10 1   
    23     9    17 1   
    24     9    28 1   
    25    10    11 2   
    26    10    12 1   
    27    12    16 1   
    28    12    29 1   
    29    12    30 1   
    30    13    14 ar  
    31    13    31 1   
    32    14    32 1   
    33    15    18 ar  
    34    15    33 1   
    35    16    17 1   
    36    16    34 2   
@<TRIPOS>SUBSTRUCTURE
     1 RWM         1 TEMP              0 ****  ****    0 ROOT
