@<TRIPOS>MOLECULE
RWM
   34    36     1     0     0
SMALL
No Charge or Current Charge


@<TRIPOS>ATOM
      1 N1          18.7150   -11.9760   -12.4430 nc         1 RWM      -0.355300
      2 C4          15.9070   -13.2180   -17.5830 c3         1 RWM      -0.095100
      3 C5          16.6230   -13.3950   -15.1630 c3         1 RWM      -0.119700
      4 C6          17.1490   -12.7970   -13.8880 cc         1 RWM       0.164300
      5 C7          16.5200   -12.4320   -12.7430 cd         1 RWM      -0.233000
      6 C8          17.5160   -11.9280   -11.8820 cd         1 RWM       0.334500
      7 C10         18.4220   -11.0420    -9.7030 ca         1 RWM      -0.079000
      8 C13         15.8250   -10.7030    -8.6960 ca         1 RWM      -0.116500
      9 N           17.6590   -11.6890   -16.7150 ns         1 RWM      -0.513900
     10 C           17.4660   -10.3310   -16.6780 c          1 RWM       0.577000
     11 O           17.9410    -9.5580   -17.4890 o          1 RWM      -0.528000
     12 C1          16.4040   -10.0840   -15.6340 c5         1 RWM      -0.284400
     13 C11         18.2290   -10.5300    -8.4090 ca         1 RWM      -0.116500
     14 C12         16.9310   -10.3610    -7.9030 ca         1 RWM      -0.093000
     15 C14         16.0140   -11.2170    -9.9910 ca         1 RWM      -0.079000
     16 C2          15.4750   -11.2110   -16.0380 c          1 RWM       0.577100
     17 C3          16.4300   -12.4160   -16.3630 c5         1 RWM       0.020400
     18 C9          17.3160   -11.4000   -10.5120 ca         1 RWM      -0.143500
     19 O1          18.4900   -12.5450   -13.7510 os         1 RWM      -0.062700
     20 H1          14.9470   -13.7030   -17.3630 hc         1 RWM       0.054367
     21 H2          15.7560   -12.5670   -18.4530 hc         1 RWM       0.054367
     22 H3          16.6150   -14.0020   -17.8780 hc         1 RWM       0.054367
     23 H4          15.6680   -13.8870   -14.9410 hc         1 RWM       0.080700
     24 H5          17.3030   -14.2020   -15.4630 hc         1 RWM       0.080700
     25 H6          15.4600   -12.5190   -12.5440 ha         1 RWM       0.158000
     26 H7          19.4390   -11.1620   -10.0700 ha         1 RWM       0.123500
     27 H8          14.8180   -10.5690    -8.3080 ha         1 RWM       0.116500
     28 H9          18.3350   -12.0290   -17.3920 hn         1 RWM       0.336500
     29 H10         16.8550   -10.3440   -14.6760 hc         1 RWM       0.110700
     30 H11         15.9600    -9.0870   -15.6790 hc         1 RWM       0.110700
     31 H12         19.0880   -10.2620    -7.7980 ha         1 RWM       0.116500
     32 H13         16.7830    -9.9630    -6.9010 ha         1 RWM       0.115000
     33 H14         15.1370   -11.4660   -10.5820 ha         1 RWM       0.123500
     34 O2          14.3060   -11.0940   -16.3840 o          1 RWM      -0.489100
@<TRIPOS>BOND
     1     1     6 2   
     2     1    19 1   
     3     2    17 1   
     4     2    20 1   
     5     2    21 1   
     6     2    22 1   
     7     3     4 1   
     8     3    17 1   
     9     3    23 1   
    10     3    24 1   
    11     4     5 2   
    12     4    19 1   
    13     5     6 1   
    14     5    25 1   
    15     6    18 1   
    16     7    13 ar  
    17     7    18 ar  
    18     7    26 1   
    19     8    14 ar  
    20     8    15 ar  
    21     8    27 1   
    22     9    10 1   
    23     9    17 1   
    24     9    28 1   
    25    10    11 2   
    26    10    12 1   
    27    12    16 1   
    28    12    29 1   
    29    12    30 1   
    30    13    14 ar  
    31    13    31 1   
    32    14    32 1   
    33    15    18 ar  
    34    15    33 1   
    35    16    17 1   
    36    16    34 2   
@<TRIPOS>SUBSTRUCTURE
     1 RWM         1 TEMP              0 ****  ****    0 ROOT
