@<TRIPOS>MOLECULE
RWN
   61    63     1     0     0
SMALL
No Charge or Current Charge


@<TRIPOS>ATOM
      1 C2         -62.3920    22.5750    -5.2970 ca         1 RWN       0.475900
      2 C3         -60.3410    23.5160    -5.6310 ca         1 RWN       0.442900
      3 C6         -63.8430    23.5990    -8.3600 cc         1 RWN       0.387700
      4 C9         -61.5970    26.3410    -9.1140 c3         1 RWN      -0.107100
      5 C10        -58.4020    23.3140    -3.9430 c3         1 RWN       0.253500
      6 C20        -65.5510    26.2380     0.3080 ca         1 RWN      -0.077300
      7 C21        -65.4750    25.0380    -0.4240 ca         1 RWN      -0.109000
      8 C17        -64.2340    26.1730    -2.1810 ca         1 RWN      -0.110000
      9 C5         -62.7930    23.0650    -6.5550 ca         1 RWN      -0.150600
     10 C8         -60.7830    24.1760   -10.2240 c3         1 RWN      -0.107100
     11 C12        -58.9760    24.0470    -2.6940 c3         1 RWN      -0.097400
     12 C4         -61.8800    23.7780    -7.2910 ca         1 RWN       0.179500
     13 C1         -63.2110    21.6730    -3.0420 c3         1 RWN       0.234800
     14 C13        -58.8090    25.5850    -2.6790 c3         1 RWN      -0.091100
     15 C16        -64.8190    24.9990    -1.6700 ca         1 RWN      -0.075300
     16 C15        -64.7320    23.6990    -2.4570 c3         1 RWN      -0.033100
     17 C11        -56.8470    23.4520    -4.0490 c3         1 RWN       0.146600
     18 C19        -64.9620    27.4060    -0.2120 ca         1 RWN      -0.113000
     19 C18        -64.3050    27.3730    -1.4540 ca         1 RWN      -0.107000
     20 N1         -63.2790    21.8630    -4.5020 nu         1 RWN      -0.919100
     21 N2         -61.1520    22.7980    -4.8320 nb         1 RWN      -0.348000
     22 N3         -60.6330    24.0190    -6.8450 nb         1 RWN      -0.302000
     23 N4         -64.0300    22.9390    -7.2020 nd         1 RWN      -0.549100
     24 N5         -62.5480    24.1160    -8.4380 na         1 RWN      -0.301300
     25 N6         -59.0580    23.7790    -5.1880 nu         1 RWN      -0.926100
     26 H62        -64.5740    23.7340    -9.1500 h5         1 RWN       0.060800
     27 H93        -62.4630    26.8390    -8.6630 hc         1 RWN       0.050367
     28 H91        -60.7790    26.3440    -8.3850 hc         1 RWN       0.050367
     29 H92        -61.2810    26.9310    -9.9820 hc         1 RWN       0.050367
     30 H101       -58.6050    22.2410    -3.8130 h1         1 RWN       0.089700
     31 H211       -65.9230    24.1320    -0.0220 ha         1 RWN       0.107000
     32 H171       -63.7220    26.1550    -3.1410 ha         1 RWN       0.115000
     33 H81        -61.0840    23.1710   -10.5440 hc         1 RWN       0.050367
     34 H82        -60.4530    24.7290   -11.1120 hc         1 RWN       0.050367
     35 H83        -59.9270    24.0800    -9.5460 hc         1 RWN       0.050367
     36 H122       -58.4930    23.6360    -1.7990 hc         1 RWN       0.054200
     37 H121       -60.0410    23.8110    -2.5920 hc         1 RWN       0.054200
     38 H11        -64.0060    20.9870    -2.7170 h1         1 RWN       0.055200
     39 H12        -62.2510    21.2110    -2.7710 h1         1 RWN       0.055200
     40 H132       -59.2680    26.0050    -1.7760 hc         1 RWN       0.033033
     41 H133       -57.7510    25.8710    -2.6810 hc         1 RWN       0.033033
     42 H131       -59.2970    26.0430    -3.5480 hc         1 RWN       0.033033
     43 H151       -64.9040    23.9030    -3.5210 hc         1 RWN       0.047200
     44 H152       -65.5260    23.0080    -2.1450 hc         1 RWN       0.047200
     45 H111       -56.5810    24.5150    -4.1250 h1         1 RWN       0.027200
     46 H112       -56.3950    23.0670    -3.1250 h1         1 RWN       0.027200
     47 H191       -65.0110    28.3380     0.3460 ha         1 RWN       0.109000
     48 H221       -65.5630    26.0210     2.4660 hc         1 RWN       0.041367
     49 H223       -66.6760    27.2620     1.8650 hc         1 RWN       0.041367
     50 H222       -67.0850    25.5510     1.6890 hc         1 RWN       0.041367
     51 H181       -63.8500    28.2780    -1.8520 ha         1 RWN       0.111000
     52 H13        -64.1950    21.7660    -4.9420 hn         1 RWN       0.509000
     53 H61        -58.4370    24.1450    -5.9070 hn         1 RWN       0.501000
     54 C7         -61.9620    24.9030    -9.5420 c3         1 RWN       0.109300
     55 O1         -56.3220    22.7400    -5.1880 oh         1 RWN      -0.659000
     56 C14        -63.3590    23.0100    -2.2800 c3         1 RWN      -0.103400
     57 C22        -66.2580    26.2700     1.6550 c3         1 RWN      -0.045800
     58 H71        -62.7480    24.9970   -10.3030 h1         1 RWN       0.048700
     59 H142       -63.2030    22.8130    -1.2120 hc         1 RWN       0.056700
     60 H141       -62.5640    23.6990    -2.5850 hc         1 RWN       0.056700
     61 H14        -55.3470    22.8620    -5.1790 ho         1 RWN       0.441000
@<TRIPOS>BOND
     1     1     9 ar  
     2     1    20 1   
     3     1    21 ar  
     4     2    21 ar  
     5     2    22 ar  
     6     2    25 1   
     7     3    23 2   
     8     3    24 1   
     9     3    26 1   
    10     4    27 1   
    11     4    28 1   
    12     4    29 1   
    13     4    54 1   
    14     5    11 1   
    15     5    17 1   
    16     5    25 1   
    17     5    30 1   
    18     6     7 ar  
    19     6    18 ar  
    20     6    57 1   
    21     7    15 ar  
    22     7    31 1   
    23     8    15 ar  
    24     8    19 ar  
    25     8    32 1   
    26     9    12 ar  
    27     9    23 1   
    28    10    33 1   
    29    10    34 1   
    30    10    35 1   
    31    10    54 1   
    32    11    14 1   
    33    11    36 1   
    34    11    37 1   
    35    12    22 ar  
    36    12    24 1   
    37    13    20 1   
    38    13    38 1   
    39    13    39 1   
    40    13    56 1   
    41    14    40 1   
    42    14    41 1   
    43    14    42 1   
    44    15    16 1   
    45    16    43 1   
    46    16    44 1   
    47    16    56 1   
    48    17    45 1   
    49    17    46 1   
    50    17    55 1   
    51    18    19 ar  
    52    18    47 1   
    53    19    51 1   
    54    20    52 1   
    55    24    54 1   
    56    25    53 1   
    57    48    57 1   
    58    49    57 1   
    59    50    57 1   
    60    54    58 1   
    61    55    61 1   
    62    56    59 1   
    63    56    60 1   
@<TRIPOS>SUBSTRUCTURE
     1 RWN         1 TEMP              0 ****  ****    0 ROOT
