@<TRIPOS>MOLECULE
RWN
   61    63     1     0     0
SMALL
abcg2


@<TRIPOS>ATOM
      1 C2         -62.5560    22.7510    -5.4070 ca         1 RWN       0.475900
      2 C3         -60.4360    23.6490    -5.6920 ca         1 RWN       0.442900
      3 C6         -63.6520    23.5850    -8.6530 cc         1 RWN       0.387700
      4 C9         -61.3510    26.1660    -9.4750 c3         1 RWN      -0.107100
      5 C10        -58.8380    23.5980    -3.7720 c3         1 RWN       0.253500
      6 C20        -65.2660    25.9730     0.6290 ca         1 RWN      -0.077300
      7 C21        -65.2520    24.8630    -0.2180 ca         1 RWN      -0.109000
      8 C17        -64.3620    26.1840    -2.0130 ca         1 RWN      -0.110000
      9 C5         -62.8510    23.1480    -6.7300 ca         1 RWN      -0.150600
     10 C8         -60.5410    23.9130   -10.3350 c3         1 RWN      -0.107100
     11 C12        -59.3250    24.6680    -2.7800 c3         1 RWN      -0.097400
     12 C4         -61.8280    23.7850    -7.4310 ca         1 RWN       0.179500
     13 C1         -63.2820    21.8020    -3.2360 c3         1 RWN       0.234800
     14 C13        -58.7460    26.0630    -3.0080 c3         1 RWN      -0.091100
     15 C16        -64.8080    24.9480    -1.5360 ca         1 RWN      -0.075300
     16 C15        -64.7520    23.7280    -2.4160 c3         1 RWN      -0.033100
     17 C11        -57.3340    23.3940    -3.6990 c3         1 RWN       0.146600
     18 C19        -64.8210    27.1970     0.1270 ca         1 RWN      -0.113000
     19 C18        -64.3710    27.3000    -1.1860 ca         1 RWN      -0.107000
     20 N1         -63.4560    22.0960    -4.6510 nu         1 RWN      -0.919100
     21 N2         -61.3430    23.0230    -4.9120 nb         1 RWN      -0.348000
     22 N3         -60.6030    24.0580    -6.9660 nb         1 RWN      -0.302000
     23 N4         -63.9880    23.0340    -7.5120 nd         1 RWN      -0.549100
     24 N5         -62.3590    24.0610    -8.6730 na         1 RWN      -0.301300
     25 N6         -59.2200    23.8960    -5.1430 nu         1 RWN      -0.926100
     26 H62        -64.2880    23.6810    -9.5190 h5         1 RWN       0.060800
     27 H93        -62.2250    26.7160    -9.1240 hc         1 RWN       0.050367
     28 H91        -60.5870    26.1920    -8.6980 hc         1 RWN       0.050367
     29 H92        -60.9610    26.6650   -10.3620 hc         1 RWN       0.050367
     30 H101       -59.3100    22.6530    -3.4980 h1         1 RWN       0.089700
     31 H211       -65.6030    23.9070     0.1590 ha         1 RWN       0.107000
     32 H171       -64.0130    26.2650    -3.0360 ha         1 RWN       0.115000
     33 H81        -60.8480    22.8930   -10.5680 hc         1 RWN       0.050367
     34 H82        -60.1500    24.3730   -11.2440 hc         1 RWN       0.050367
     35 H83        -59.7410    23.8770    -9.5950 hc         1 RWN       0.050367
     36 H122       -59.0920    24.3230    -1.7680 hc         1 RWN       0.054200
     37 H121       -60.4130    24.7070    -2.8540 hc         1 RWN       0.054200
     38 H11        -64.0530    21.0770    -2.9720 h1         1 RWN       0.055200
     39 H12        -62.3130    21.3210    -3.0930 h1         1 RWN       0.055200
     40 H132       -59.2120    26.7860    -2.3360 hc         1 RWN       0.033033
     41 H133       -57.6690    26.0910    -2.8310 hc         1 RWN       0.033033
     42 H131       -58.9270    26.3960    -4.0330 hc         1 RWN       0.033033
     43 H151       -64.9330    24.0200    -3.4530 hc         1 RWN       0.047200
     44 H152       -65.5390    23.0240    -2.1330 hc         1 RWN       0.047200
     45 H111       -56.8100    24.2400    -4.1570 h1         1 RWN       0.027200
     46 H112       -57.0390    23.3430    -2.6460 h1         1 RWN       0.027200
     47 H191       -64.8350    28.0730     0.7650 ha         1 RWN       0.109000
     48 H221       -64.8990    25.5240     2.7020 hc         1 RWN       0.041367
     49 H223       -66.0970    26.7910     2.4440 hc         1 RWN       0.041367
     50 H222       -66.5150    25.0950     2.1510 hc         1 RWN       0.041367
     51 H181       -64.0330    28.2560    -1.5660 ha         1 RWN       0.111000
     52 H13        -64.3790    21.9930    -5.0410 hn         1 RWN       0.509000
     53 H61        -58.5630    24.3760    -5.7350 hn         1 RWN       0.501000
     54 C7         -61.7240    24.7270    -9.8190 c3         1 RWN       0.109300
     55 O1         -56.9950    22.1790    -4.3730 oh         1 RWN      -0.659000
     56 C14        -63.3900    23.0280    -2.3300 c3         1 RWN      -0.103400
     57 C22        -65.7250    25.8410     2.0580 c3         1 RWN      -0.045800
     58 H71        -62.4970    24.7420   -10.5890 h1         1 RWN       0.048700
     59 H142       -63.2020    22.7120    -1.3000 hc         1 RWN       0.056700
     60 H141       -62.6040    23.7370    -2.5960 hc         1 RWN       0.056700
     61 H14        -56.0340    22.1220    -4.4250 ho         1 RWN       0.441000
@<TRIPOS>BOND
     1     1     9 ar  
     2     1    20 1   
     3     1    21 ar  
     4     2    21 ar  
     5     2    22 ar  
     6     2    25 1   
     7     3    23 2   
     8     3    24 1   
     9     3    26 1   
    10     4    27 1   
    11     4    28 1   
    12     4    29 1   
    13     4    54 1   
    14     5    11 1   
    15     5    17 1   
    16     5    25 1   
    17     5    30 1   
    18     6     7 ar  
    19     6    18 ar  
    20     6    57 1   
    21     7    15 ar  
    22     7    31 1   
    23     8    15 ar  
    24     8    19 ar  
    25     8    32 1   
    26     9    12 ar  
    27     9    23 1   
    28    10    33 1   
    29    10    34 1   
    30    10    35 1   
    31    10    54 1   
    32    11    14 1   
    33    11    36 1   
    34    11    37 1   
    35    12    22 ar  
    36    12    24 1   
    37    13    20 1   
    38    13    38 1   
    39    13    39 1   
    40    13    56 1   
    41    14    40 1   
    42    14    41 1   
    43    14    42 1   
    44    15    16 1   
    45    16    43 1   
    46    16    44 1   
    47    16    56 1   
    48    17    45 1   
    49    17    46 1   
    50    17    55 1   
    51    18    19 ar  
    52    18    47 1   
    53    19    51 1   
    54    20    52 1   
    55    24    54 1   
    56    25    53 1   
    57    48    57 1   
    58    49    57 1   
    59    50    57 1   
    60    54    58 1   
    61    55    61 1   
    62    56    59 1   
    63    56    60 1   
@<TRIPOS>SUBSTRUCTURE
     1 RWN         1 TEMP              0 ****  ****    0 ROOT
