@<TRIPOS>MOLECULE
RWP
   25    25     1     0     0
SMALL
bcc


@<TRIPOS>ATOM
      1 C4          28.2630    45.7440   -13.2510 ca         1 RWP      -0.178500
      2 C5          28.8250    46.7980   -12.5260 ca         1 RWP       0.089600
      3 C6          28.2270    47.2020   -11.3320 ca         1 RWP      -0.178500
      4 C7          27.0860    46.5560   -10.8870 ca         1 RWP      -0.045000
      5 C8          30.7620    48.3280   -12.5240 c          1 RWP       0.620100
      6 O2          24.8180    43.8560   -11.7500 o          1 RWP      -0.539000
      7 O           24.7950    45.2940   -10.0440 os         1 RWP      -0.416900
      8 C           23.6140    44.6860    -9.5230 c3         1 RWP       0.130700
      9 C2          26.5220    45.5050   -11.6050 ca         1 RWP      -0.162600
     10 C3          27.1290    45.1070   -12.7950 ca         1 RWP      -0.045000
     11 N           29.9680    47.3900   -13.0730 ns         1 RWP      -0.454100
     12 O1          30.6310    48.8590   -11.4480 o          1 RWP      -0.511100
     13 C9          31.9710    48.6970   -13.4070 c3         1 RWP       0.584900
     14 F           31.6090    48.9310   -14.6690 f          1 RWP      -0.219967
     15 F1          32.5670    49.7800   -12.9370 f          1 RWP      -0.219967
     16 F2          32.8600    47.7000   -13.4170 f          1 RWP      -0.219967
     17 H1          28.7200    45.4240   -14.1790 ha         1 RWP       0.153000
     18 H2          28.6290    48.0110   -10.7460 ha         1 RWP       0.153000
     19 H3          26.6410    46.8910    -9.9600 ha         1 RWP       0.156000
     20 H4          23.3450    45.2640    -8.6450 h1         1 RWP       0.049700
     21 H5          22.7970    44.7200   -10.2430 h1         1 RWP       0.049700
     22 H6          23.7950    43.6510    -9.2330 h1         1 RWP       0.049700
     23 H7          26.7140    44.2930   -13.3740 ha         1 RWP       0.156000
     24 H8          30.2120    47.0450   -13.9920 hn         1 RWP       0.337500
     25 C1          25.3020    44.7930   -11.1590 c          1 RWP       0.658700
@<TRIPOS>BOND
     1     1     2 ar  
     2     1    10 ar  
     3     1    17 1   
     4     2     3 ar  
     5     2    11 1   
     6     3     4 ar  
     7     3    18 1   
     8     4     9 ar  
     9     4    19 1   
    10     5    11 1   
    11     5    12 2   
    12     5    13 1   
    13     6    25 2   
    14     7     8 1   
    15     7    25 1   
    16     8    20 1   
    17     8    21 1   
    18     8    22 1   
    19     9    10 ar  
    20     9    25 1   
    21    10    23 1   
    22    11    24 1   
    23    13    14 1   
    24    13    15 1   
    25    13    16 1   
@<TRIPOS>SUBSTRUCTURE
     1 RWP         1 TEMP              0 ****  ****    0 ROOT
