@<TRIPOS>MOLECULE
RWP
   25    25     1     0     0
SMALL
No Charge or Current Charge


@<TRIPOS>ATOM
      1 C4          28.3020    45.7260   -13.2430 ca         1 RWP      -0.160500
      2 C5          28.8560    46.7890   -12.5090 ca         1 RWP      -0.003000
      3 C6          28.2160    47.1950   -11.3190 ca         1 RWP      -0.160500
      4 C7          27.0480    46.5480   -10.8770 ca         1 RWP      -0.027000
      5 C8          30.8440    48.4290   -12.5500 c          1 RWP       0.553100
      6 O2          24.7390    43.8410   -11.7810 o          1 RWP      -0.490000
      7 O           24.7210    45.2630    -9.9880 os         1 RWP      -0.440100
      8 C           23.5250    44.6550    -9.4660 c3         1 RWP       0.153900
      9 C2          26.4940    45.4790   -11.6160 ca         1 RWP      -0.162600
     10 C3          27.1350    45.0760   -12.8050 ca         1 RWP      -0.027000
     11 N           30.0390    47.3950   -13.0190 ns         1 RWP      -0.128000
     12 O1          30.6330    49.0380   -11.5040 o          1 RWP      -0.511100
     13 C9          32.0490    48.7480   -13.4730 c3         1 RWP       0.221000
     14 F           31.6390    49.1160   -14.7110 f          1 RWP      -0.098667
     15 F1          32.8120    49.7580   -12.9880 f          1 RWP      -0.098667
     16 F2          32.8580    47.6710   -13.6200 f          1 RWP      -0.098667
     17 H1          28.7770    45.3940   -14.1650 ha         1 RWP       0.135000
     18 H2          28.6020    48.0120   -10.7170 ha         1 RWP       0.135000
     19 H3          26.5810    46.8870    -9.9540 ha         1 RWP       0.138000
     20 H4          23.2240    45.1460    -8.5320 h1         1 RWP       0.049700
     21 H5          22.6950    44.7460   -10.1790 h1         1 RWP       0.049700
     22 H6          23.6870    43.5910    -9.2530 h1         1 RWP       0.049700
     23 H7          26.7320    44.2550   -13.3970 ha         1 RWP       0.138000
     24 H8          30.3530    46.9960   -13.8950 hn         1 RWP       0.171000
     25 C1          25.2410    44.7700   -11.1590 c          1 RWP       0.609700
@<TRIPOS>BOND
     1     1     2 ar  
     2     1    10 ar  
     3     1    17 1   
     4     2     3 ar  
     5     2    11 1   
     6     3     4 ar  
     7     3    18 1   
     8     4     9 ar  
     9     4    19 1   
    10     5    11 1   
    11     5    12 2   
    12     5    13 1   
    13     6    25 2   
    14     7     8 1   
    15     7    25 1   
    16     8    20 1   
    17     8    21 1   
    18     8    22 1   
    19     9    10 ar  
    20     9    25 1   
    21    10    23 1   
    22    11    24 1   
    23    13    14 1   
    24    13    15 1   
    25    13    16 1   
@<TRIPOS>SUBSTRUCTURE
     1 RWP         1 TEMP              0 ****  ****    0 ROOT
