@<TRIPOS>MOLECULE
RWQ
   39    42     1     0     0
SMALL
No Charge or Current Charge


@<TRIPOS>ATOM
      1 C18        -46.2950   -29.2110     6.4420 ca         1 RWQ       0.196500
      2 C15        -48.4910   -29.1830     3.4450 ca         1 RWQ      -0.054000
      3 C14        -49.9030   -29.2480     3.4430 ca         1 RWQ      -0.174000
      4 C13        -50.6210   -29.3600     4.6580 ca         1 RWQ       0.185000
      5 C12        -49.9480   -29.4010     5.8950 ca         1 RWQ      -0.173000
      6 C11        -48.5520   -29.3420     5.8620 ca         1 RWQ       0.004800
      7 C10        -47.8200   -29.2510     4.6840 cp         1 RWQ      -0.055000
      8 C20        -44.0360   -29.0400     6.2750 ca         1 RWQ       0.188900
      9 C03        -45.5450   -30.3200     0.6800 c6         1 RWQ      -0.074700
     10 C04        -44.1800   -29.8350     0.1060 c6         1 RWQ      -0.057400
     11 C05        -43.4090   -28.9260     1.1030 c6         1 RWQ      -0.091400
     12 C06        -44.3490   -28.2000     2.0970 c6         1 RWQ       0.226800
     13 C08        -45.2190   -29.1050     4.2900 ca         1 RWQ       0.439900
     14 C09        -46.4050   -29.1900     5.0490 cp         1 RWQ      -0.239000
     15 C22        -45.4800   -30.4720     2.2220 c6         1 RWQ       0.222800
     16 F16        -51.9700   -29.4140     4.6320 f          1 RWQ      -0.184000
     17 N07        -45.1770   -29.1670     2.8860 nh         1 RWQ      -0.772300
     18 N17        -47.6150   -29.3210     6.9010 na         1 RWQ      -0.331300
     19 N19        -45.1190   -29.1360     7.0800 nb         1 RWQ      -0.245000
     20 N21        -44.0260   -29.0270     4.9200 nb         1 RWQ      -0.299000
     21 H151       -47.9430   -29.0710     2.5150 ha         1 RWQ       0.119000
     22 H141       -50.4450   -29.2020     2.5020 ha         1 RWQ       0.131000
     23 H121       -50.4940   -29.4700     6.8320 ha         1 RWQ       0.138000
     24 H201       -43.0680   -28.9760     6.7680 h5         1 RWQ       0.047100
     25 H031       -46.2950   -29.5470     0.4620 hc         1 RWQ       0.053700
     26 H042       -44.3600   -29.2900    -0.8320 hc         1 RWQ       0.046700
     27 H041       -43.5410   -30.6890    -0.1570 hc         1 RWQ       0.046700
     28 H051       -42.6980   -29.5360     1.6770 hc         1 RWQ       0.055200
     29 H052       -42.8060   -28.1920     0.5520 hc         1 RWQ       0.055200
     30 H062       -43.7410   -27.5680     2.7620 h1         1 RWQ       0.056200
     31 H061       -45.0090   -27.5190     1.5400 h1         1 RWQ       0.056200
     32 H222       -46.4390   -30.8690     2.5850 h1         1 RWQ       0.062200
     33 H221       -44.7080   -31.2130     2.4810 h1         1 RWQ       0.062200
     34 H171       -47.8560   -29.3720     7.8830 hn         1 RWQ       0.369000
     35 H011       -45.6550   -33.5000    -0.2620 ho         1 RWQ       0.443000
     36 C02        -46.0790   -31.6010    -0.0220 c3         1 RWQ       0.162600
     37 O01        -45.2640   -32.7510     0.2410 oh         1 RWQ      -0.669000
     38 H021       -47.1040   -31.7840     0.3260 h1         1 RWQ       0.025200
     39 H022       -46.1280   -31.4110    -1.1020 h1         1 RWQ       0.025200
@<TRIPOS>BOND
     1     1    14 ar  
     2     1    18 1   
     3     1    19 ar  
     4     2     3 ar  
     5     2     7 ar  
     6     2    21 1   
     7     3     4 ar  
     8     3    22 1   
     9     4     5 ar  
    10     4    16 1   
    11     5     6 ar  
    12     5    23 1   
    13     6     7 ar  
    14     6    18 1   
    15     7    14 1   
    16     8    19 ar  
    17     8    20 ar  
    18     8    24 1   
    19     9    10 1   
    20     9    15 1   
    21     9    25 1   
    22     9    36 1   
    23    10    11 1   
    24    10    26 1   
    25    10    27 1   
    26    11    12 1   
    27    11    28 1   
    28    11    29 1   
    29    12    17 1   
    30    12    30 1   
    31    12    31 1   
    32    13    14 ar  
    33    13    17 1   
    34    13    20 ar  
    35    15    17 1   
    36    15    32 1   
    37    15    33 1   
    38    18    34 1   
    39    35    37 1   
    40    36    37 1   
    41    36    38 1   
    42    36    39 1   
@<TRIPOS>SUBSTRUCTURE
     1 RWQ         1 TEMP              0 ****  ****    0 ROOT
