@<TRIPOS>MOLECULE
RWQ
   39    42     1     0     0
SMALL
abcg2


@<TRIPOS>ATOM
      1 C18        -46.4270   -28.8350     6.2550 ca         1 RWQ       0.196500
      2 C15        -48.4930   -29.6310     3.3140 ca         1 RWQ      -0.054000
      3 C14        -49.8700   -29.8110     3.3380 ca         1 RWQ      -0.174000
      4 C13        -50.5450   -29.7520     4.5520 ca         1 RWQ       0.185000
      5 C12        -49.9220   -29.4950     5.7550 ca         1 RWQ      -0.173000
      6 C11        -48.5450   -29.3120     5.7050 ca         1 RWQ       0.004800
      7 C10        -47.7900   -29.4040     4.5010 cp         1 RWQ      -0.055000
      8 C20        -44.2900   -28.2470     6.2830 ca         1 RWQ       0.188900
      9 C03        -45.8230   -30.0530     0.8570 c6         1 RWQ      -0.074700
     10 C04        -44.6240   -29.2770     0.2580 c6         1 RWQ      -0.057400
     11 C05        -43.3370   -29.5660     1.0250 c6         1 RWQ      -0.091400
     12 C06        -43.4560   -29.1350     2.4880 c6         1 RWQ       0.226800
     13 C08        -45.1180   -29.0540     4.2710 ca         1 RWQ       0.439900
     14 C09        -46.4060   -29.1370     4.8720 cp         1 RWQ      -0.239000
     15 C22        -45.5020   -30.4930     2.2900 c6         1 RWQ       0.222800
     16 F16        -51.8920   -29.9400     4.5500 f          1 RWQ      -0.184000
     17 N07        -44.7980   -29.4390     3.0130 nh         1 RWQ      -0.772300
     18 N17        -47.6960   -28.9890     6.7390 na         1 RWQ      -0.331300
     19 N19        -45.4010   -28.4100     6.9970 nb         1 RWQ      -0.245000
     20 N21        -44.0990   -28.5370     5.0030 nb         1 RWQ      -0.299000
     21 H151       -47.9950   -29.6490     2.3590 ha         1 RWQ       0.119000
     22 H141       -50.4240   -29.9880     2.4270 ha         1 RWQ       0.131000
     23 H121       -50.4830   -29.4280     6.6780 ha         1 RWQ       0.138000
     24 H201       -43.4320   -27.8420     6.8120 h5         1 RWQ       0.047100
     25 H031       -46.6800   -29.3750     0.8890 hc         1 RWQ       0.053700
     26 H042       -44.8290   -28.2040     0.3040 hc         1 RWQ       0.046700
     27 H041       -44.5030   -29.5330    -0.7960 hc         1 RWQ       0.046700
     28 H051       -43.1030   -30.6300     0.9610 hc         1 RWQ       0.055200
     29 H052       -42.4950   -29.0310     0.5830 hc         1 RWQ       0.055200
     30 H062       -42.6910   -29.6230     3.0970 h1         1 RWQ       0.056200
     31 H061       -43.2990   -28.0590     2.5750 h1         1 RWQ       0.056200
     32 H222       -46.3950   -30.7800     2.8320 h1         1 RWQ       0.062200
     33 H221       -44.8600   -31.3780     2.2670 h1         1 RWQ       0.062200
     34 H171       -47.9710   -28.7930     7.6890 hn         1 RWQ       0.369000
     35 H011       -45.4680   -32.8840    -0.6960 ho         1 RWQ       0.443000
     36 C02        -46.2610   -31.2350     0.0090 c3         1 RWQ       0.162600
     37 O01        -45.1690   -32.1480    -0.1490 oh         1 RWQ      -0.669000
     38 H021       -47.1090   -31.7400     0.4880 h1         1 RWQ       0.025200
     39 H022       -46.5930   -30.8720    -0.9700 h1         1 RWQ       0.025200
@<TRIPOS>BOND
     1     1    14 ar  
     2     1    18 1   
     3     1    19 ar  
     4     2     3 ar  
     5     2     7 ar  
     6     2    21 1   
     7     3     4 ar  
     8     3    22 1   
     9     4     5 ar  
    10     4    16 1   
    11     5     6 ar  
    12     5    23 1   
    13     6     7 ar  
    14     6    18 1   
    15     7    14 1   
    16     8    19 ar  
    17     8    20 ar  
    18     8    24 1   
    19     9    10 1   
    20     9    15 1   
    21     9    25 1   
    22     9    36 1   
    23    10    11 1   
    24    10    26 1   
    25    10    27 1   
    26    11    12 1   
    27    11    28 1   
    28    11    29 1   
    29    12    17 1   
    30    12    30 1   
    31    12    31 1   
    32    13    14 ar  
    33    13    17 1   
    34    13    20 ar  
    35    15    17 1   
    36    15    32 1   
    37    15    33 1   
    38    18    34 1   
    39    35    37 1   
    40    36    37 1   
    41    36    38 1   
    42    36    39 1   
@<TRIPOS>SUBSTRUCTURE
     1 RWQ         1 TEMP              0 ****  ****    0 ROOT
