@<TRIPOS>MOLECULE
RWR
   58    61     1     0     0
SMALL
abcg2


@<TRIPOS>ATOM
      1 C10         35.5540   -33.4470   -28.5750 ca         1 RWR      -0.014300
      2 C11         36.0650   -32.1380   -28.4800 cp         1 RWR      -0.029000
      3 C12         37.4350   -31.9180   -28.2250 ca         1 RWR      -0.058300
      4 C13         38.2630   -33.0250   -28.0570 ca         1 RWR      -0.129000
      5 C14         37.7580   -34.3130   -28.1590 ca         1 RWR      -0.129000
      6 C15         36.4140   -34.5490   -28.4270 ca         1 RWR      -0.038300
      7 C16         35.9380   -35.9730   -28.5550 c3         1 RWR      -0.045800
      8 C17         37.9720   -30.5300   -28.1370 cx         1 RWR      -0.057400
      9 C18         39.4430   -30.2160   -28.0550 cx         1 RWR      -0.138900
     10 C19         38.5770   -30.0140   -26.8470 cx         1 RWR      -0.138900
     11 C20         35.1590   -30.9610   -28.6250 cp         1 RWR      -0.051000
     12 C21         34.5330   -30.6740   -29.8370 ca         1 RWR      -0.047000
     13 C22         33.6650   -29.5950   -29.9950 ca         1 RWR      -0.156300
     14 C02         33.7390   -34.2720   -30.1980 c          1 RWR       0.723000
     15 C04         34.0670   -33.6810   -28.7890 c3         1 RWR       0.054600
     16 C07         34.1920   -33.4410   -25.6690 c3         1 RWR      -0.099767
     17 C08         32.2740   -35.0350   -25.8650 c3         1 RWR      -0.099767
     18 C09         32.0660   -32.7310   -26.8170 c3         1 RWR      -0.099767
     19 C23         33.0060   -29.3080   -31.3230 c6         1 RWR      -0.022100
     20 C24         32.4910   -27.8720   -31.3690 c6         1 RWR      -0.111400
     21 C25         31.7410   -27.5700   -30.0870 c6         1 RWR       0.162600
     22 C27         33.4210   -28.7750   -28.8880 ca         1 RWR       0.118100
     23 C28         34.0490   -29.0330   -27.6700 ca         1 RWR      -0.159000
     24 C29         34.9080   -30.1120   -27.5430 ca         1 RWR      -0.082000
     25 O03         32.8080   -35.1020   -30.2890 o          1 RWR      -0.713000
     26 O05         33.4910   -34.4950   -27.7760 os         1 RWR      -0.436000
     27 O26         32.5940   -27.6860   -28.9340 os         1 RWR      -0.365100
     28 H1          39.3190   -32.8900   -27.8640 ha         1 RWR       0.091000
     29 H2          38.4290   -35.1570   -28.0420 ha         1 RWR       0.093000
     30 H3          35.3770   -36.1270   -29.4780 hc         1 RWR       0.048367
     31 H4          36.7890   -36.6550   -28.5560 hc         1 RWR       0.048367
     32 H5          35.2710   -36.2460   -27.7370 hc         1 RWR       0.048367
     33 H6          37.3850   -29.7980   -28.6740 hc         1 RWR       0.085700
     34 H7          40.1520   -31.0330   -28.0430 hc         1 RWR       0.063700
     35 H8          39.7850   -29.3390   -28.5890 hc         1 RWR       0.063700
     36 H9          38.6710   -30.7300   -26.0400 hc         1 RWR       0.063700
     37 H10         38.3350   -29.0060   -26.5380 hc         1 RWR       0.063700
     38 H11         34.7120   -31.3270   -30.6830 ha         1 RWR       0.165000
     39 H12         33.5680   -32.7140   -28.7990 h1         1 RWR       0.035700
     40 H13         33.8180   -33.1070   -24.6980 hc         1 RWR       0.033589
     41 H14         34.8860   -34.2680   -25.5080 hc         1 RWR       0.033589
     42 H15         34.7390   -32.6170   -26.1230 hc         1 RWR       0.033589
     43 H16         31.8910   -34.7150   -24.8940 hc         1 RWR       0.033589
     44 H17         31.4330   -35.3590   -26.4810 hc         1 RWR       0.033589
     45 H18         32.9400   -35.8860   -25.7120 hc         1 RWR       0.033589
     46 H19         31.5830   -32.4370   -25.8840 hc         1 RWR       0.033589
     47 H20         32.5810   -31.8550   -27.2100 hc         1 RWR       0.033589
     48 H21         31.2920   -33.0330   -27.5260 hc         1 RWR       0.033589
     49 H22         32.1700   -29.9990   -31.4720 hc         1 RWR       0.060200
     50 H23         33.7140   -29.4970   -32.1330 hc         1 RWR       0.060200
     51 H24         33.3250   -27.1710   -31.4680 hc         1 RWR       0.046200
     52 H25         31.8270   -27.7200   -32.2210 hc         1 RWR       0.046200
     53 H26         31.3640   -26.5490   -30.0610 h1         1 RWR       0.044700
     54 H27         30.8980   -28.2600   -29.9650 h1         1 RWR       0.044700
     55 H28         33.8480   -28.3810   -26.8280 ha         1 RWR       0.111000
     56 H29         35.3860   -30.3020   -26.5900 ha         1 RWR       0.112000
     57 C06         33.0240   -33.8940   -26.5480 c3         1 RWR       0.179000
     58 O01         34.4200   -33.8030   -31.1450 o          1 RWR      -0.713000
@<TRIPOS>BOND
     1     1     2 ar  
     2     1     6 ar  
     3     1    15 1   
     4     2     3 ar  
     5     2    11 1   
     6     3     4 ar  
     7     3     8 1   
     8     4     5 ar  
     9     4    28 1   
    10     5     6 ar  
    11     5    29 1   
    12     6     7 1   
    13     7    30 1   
    14     7    31 1   
    15     7    32 1   
    16     8     9 1   
    17     8    10 1   
    18     8    33 1   
    19     9    10 1   
    20     9    34 1   
    21     9    35 1   
    22    10    36 1   
    23    10    37 1   
    24    11    12 ar  
    25    11    24 ar  
    26    12    13 ar  
    27    12    38 1   
    28    13    19 1   
    29    13    22 ar  
    30    14    15 1   
    31    14    25 1   
    32    14    58 1   
    33    15    26 1   
    34    15    39 1   
    35    16    40 1   
    36    16    41 1   
    37    16    42 1   
    38    16    57 1   
    39    17    43 1   
    40    17    44 1   
    41    17    45 1   
    42    17    57 1   
    43    18    46 1   
    44    18    47 1   
    45    18    48 1   
    46    18    57 1   
    47    19    20 1   
    48    19    49 1   
    49    19    50 1   
    50    20    21 1   
    51    20    51 1   
    52    20    52 1   
    53    21    27 1   
    54    21    53 1   
    55    21    54 1   
    56    22    23 ar  
    57    22    27 1   
    58    23    24 ar  
    59    23    55 1   
    60    24    56 1   
    61    26    57 1   
@<TRIPOS>SUBSTRUCTURE
     1 RWR         1 TEMP              0 ****  ****    0 ROOT
