@<TRIPOS>MOLECULE
RWR
   58    61     1     0     0
SMALL
No Charge or Current Charge


@<TRIPOS>ATOM
      1 C10         35.4470   -33.4880   -28.5560 ca         1 RWR      -0.014300
      2 C11         35.9900   -32.1600   -28.5320 cp         1 RWR      -0.029000
      3 C12         37.4000   -32.0120   -28.3990 ca         1 RWR      -0.058300
      4 C13         38.2560   -33.1150   -28.3040 ca         1 RWR      -0.129000
      5 C14         37.7180   -34.4050   -28.3340 ca         1 RWR      -0.129000
      6 C15         36.3300   -34.6080   -28.4640 ca         1 RWR      -0.038300
      7 C16         35.8390   -36.0560   -28.5010 c3         1 RWR      -0.045800
      8 C17         37.8860   -30.5810   -28.4150 cx         1 RWR      -0.057400
      9 C18         39.1930   -30.1570   -27.7780 cx         1 RWR      -0.138900
     10 C19         37.8840   -29.7300   -27.1650 cx         1 RWR      -0.138900
     11 C20         35.1000   -30.9620   -28.6710 cp         1 RWR      -0.051000
     12 C21         34.6680   -30.5350   -29.9480 ca         1 RWR      -0.047000
     13 C22         33.8260   -29.4160   -30.0980 ca         1 RWR      -0.156300
     14 C02         33.5530   -34.1900   -30.1500 c          1 RWR       0.723000
     15 C04         33.9170   -33.6950   -28.7000 c3         1 RWR       0.054600
     16 C07         34.4650   -33.6970   -25.6160 c3         1 RWR      -0.099767
     17 C08         32.5020   -35.2940   -25.5720 c3         1 RWR      -0.099767
     18 C09         32.1280   -32.9120   -26.3610 c3         1 RWR      -0.099767
     19 C23         33.3870   -28.9750   -31.4960 c6         1 RWR      -0.022100
     20 C24         32.8330   -27.5360   -31.4890 c6         1 RWR      -0.111400
     21 C25         31.8830   -27.3530   -30.2900 c6         1 RWR       0.162600
     22 C27         33.3970   -28.7120   -28.9490 ca         1 RWR       0.118100
     23 C28         33.8320   -29.1130   -27.6770 ca         1 RWR      -0.159000
     24 C29         34.6740   -30.2280   -27.5380 ca         1 RWR      -0.082000
     25 O03         32.8020   -35.1500   -30.2920 o          1 RWR      -0.713000
     26 O05         33.3860   -34.5820   -27.6540 os         1 RWR      -0.436000
     27 O26         32.5740   -27.6080   -29.0480 os         1 RWR      -0.365100
     28 H1          39.3310   -32.9820   -28.2200 ha         1 RWR       0.091000
     29 H2          38.3900   -35.2560   -28.2620 ha         1 RWR       0.093000
     30 H3          35.1550   -36.2360   -29.3360 hc         1 RWR       0.048367
     31 H4          36.6680   -36.7630   -28.6220 hc         1 RWR       0.048367
     32 H5          35.3250   -36.3260   -27.5720 hc         1 RWR       0.048367
     33 H6          37.6390   -30.0790   -29.3490 hc         1 RWR       0.085700
     34 H7          39.7760   -30.8950   -27.2350 hc         1 RWR       0.063700
     35 H8          39.7830   -29.4010   -28.2910 hc         1 RWR       0.063700
     36 H9          37.5870   -30.2010   -26.2320 hc         1 RWR       0.063700
     37 H10         37.5870   -28.6890   -27.2660 hc         1 RWR       0.063700
     38 H11         34.9980   -31.0840   -30.8280 ha         1 RWR       0.165000
     39 H12         33.4090   -32.7290   -28.6330 h1         1 RWR       0.035700
     40 H13         34.3000   -33.5180   -24.5470 hc         1 RWR       0.033589
     41 H14         35.2100   -34.4950   -25.7120 hc         1 RWR       0.033589
     42 H15         34.8820   -32.7770   -26.0350 hc         1 RWR       0.033589
     43 H16         32.2630   -35.0350   -24.5340 hc         1 RWR       0.033589
     44 H17         31.5740   -35.6090   -26.0650 hc         1 RWR       0.033589
     45 H18         33.1890   -36.1490   -25.5590 hc         1 RWR       0.033589
     46 H19         31.7500   -32.6870   -25.3560 hc         1 RWR       0.033589
     47 H20         32.5930   -31.9970   -26.7430 hc         1 RWR       0.033589
     48 H21         31.2700   -33.1580   -26.9970 hc         1 RWR       0.033589
     49 H22         32.6140   -29.6650   -31.8610 hc         1 RWR       0.060200
     50 H23         34.2260   -29.0460   -32.2020 hc         1 RWR       0.060200
     51 H24         33.6590   -26.8150   -31.4140 hc         1 RWR       0.046200
     52 H25         32.3080   -27.3250   -32.4300 hc         1 RWR       0.046200
     53 H26         31.4780   -26.3310   -30.2710 h1         1 RWR       0.044700
     54 H27         31.0400   -28.0540   -30.3750 h1         1 RWR       0.044700
     55 H28         33.5130   -28.5610   -26.7970 ha         1 RWR       0.111000
     56 H29         35.0040   -30.5270   -26.5470 ha         1 RWR       0.112000
     57 C06         33.1350   -34.0910   -26.3080 c3         1 RWR       0.179000
     58 O01         34.0280   -33.5880   -31.1060 o          1 RWR      -0.713000
@<TRIPOS>BOND
     1     1     2 ar  
     2     1     6 ar  
     3     1    15 1   
     4     2     3 ar  
     5     2    11 1   
     6     3     4 ar  
     7     3     8 1   
     8     4     5 ar  
     9     4    28 1   
    10     5     6 ar  
    11     5    29 1   
    12     6     7 1   
    13     7    30 1   
    14     7    31 1   
    15     7    32 1   
    16     8     9 1   
    17     8    10 1   
    18     8    33 1   
    19     9    10 1   
    20     9    34 1   
    21     9    35 1   
    22    10    36 1   
    23    10    37 1   
    24    11    12 ar  
    25    11    24 ar  
    26    12    13 ar  
    27    12    38 1   
    28    13    19 1   
    29    13    22 ar  
    30    14    15 1   
    31    14    25 1   
    32    14    58 1   
    33    15    26 1   
    34    15    39 1   
    35    16    40 1   
    36    16    41 1   
    37    16    42 1   
    38    16    57 1   
    39    17    43 1   
    40    17    44 1   
    41    17    45 1   
    42    17    57 1   
    43    18    46 1   
    44    18    47 1   
    45    18    48 1   
    46    18    57 1   
    47    19    20 1   
    48    19    49 1   
    49    19    50 1   
    50    20    21 1   
    51    20    51 1   
    52    20    52 1   
    53    21    27 1   
    54    21    53 1   
    55    21    54 1   
    56    22    23 ar  
    57    22    27 1   
    58    23    24 ar  
    59    23    55 1   
    60    24    56 1   
    61    26    57 1   
@<TRIPOS>SUBSTRUCTURE
     1 RWR         1 TEMP              0 ****  ****    0 ROOT
