@<TRIPOS>MOLECULE
RWS
   25    26     1     0     0
SMALL
No Charge or Current Charge


@<TRIPOS>ATOM
      1 N1          10.4350    -4.6390    10.5000 nc         1 RWS      -0.436000
      2 C4          13.8680    -2.5420    13.1940 c6         1 RWS      -0.092900
      3 C5          14.7190    -2.0200    12.0070 c6         1 RWS      -0.073400
      4 C6          14.0370    -2.2740    10.6360 c6         1 RWS      -0.092900
      5 C7          13.0790    -3.4890    10.6680 c6         1 RWS       0.233800
      6 C            6.9950    -4.6240    11.7690 c3         1 RWS      -0.123400
      7 C1           8.4610    -4.4020    11.5280 cd         1 RWS       0.401700
      8 S            9.4090    -3.3570    12.5550 ss         1 RWS      -0.377800
      9 C2          10.7130    -3.8080    11.4940 cd         1 RWS       0.704300
     10 N            9.0930    -4.9940    10.5210 nc         1 RWS      -0.292000
     11 N2          12.0010    -3.2970    11.6870 nh         1 RWS      -0.779300
     12 C3          12.3490    -2.4940    12.8980 c6         1 RWS       0.233800
     13 H2          14.0930    -1.9630    14.1000 hc         1 RWS       0.052450
     14 H3          15.7050    -2.5040    12.0310 hc         1 RWS       0.044700
     15 H4          14.9040    -0.9430    12.1230 hc         1 RWS       0.044700
     16 H5          14.8000    -2.4170     9.8590 hc         1 RWS       0.052450
     17 H6          13.4660    -1.3830    10.3420 hc         1 RWS       0.052450
     18 H7          12.6520    -3.6120     9.6620 h1         1 RWS       0.055700
     19 H8          13.6510    -4.4010    10.8910 h1         1 RWS       0.055700
     20 H9           6.4050    -4.3020    10.9030 hc         1 RWS       0.057367
     21 H10          6.7850    -5.6840    11.9480 hc         1 RWS       0.057367
     22 H11          6.6480    -4.0590    12.6410 hc         1 RWS       0.057367
     23 H12         12.0370    -1.4480    12.7580 h1         1 RWS       0.055700
     24 H13         11.8200    -2.8760    13.7830 h1         1 RWS       0.055700
     25 H1          14.1500    -3.5800    13.4180 hc         1 RWS       0.052450
@<TRIPOS>BOND
     1     1     9 2   
     2     1    10 1   
     3     2     3 1   
     4     2    12 1   
     5     2    13 1   
     6     2    25 1   
     7     3     4 1   
     8     3    14 1   
     9     3    15 1   
    10     4     5 1   
    11     4    16 1   
    12     4    17 1   
    13     5    11 1   
    14     5    18 1   
    15     5    19 1   
    16     6     7 1   
    17     6    20 1   
    18     6    21 1   
    19     6    22 1   
    20     7     8 1   
    21     7    10 2   
    22     8     9 1   
    23     9    11 1   
    24    11    12 1   
    25    12    23 1   
    26    12    24 1   
@<TRIPOS>SUBSTRUCTURE
     1 RWS         1 TEMP              0 ****  ****    0 ROOT
