@<TRIPOS>MOLECULE
RWS
   25    26     1     0     0
SMALL
bcc


@<TRIPOS>ATOM
      1 N1          10.4420    -4.4490    10.4530 nc         1 RWS      -0.436000
      2 C4          13.8160    -2.6490    13.1800 c6         1 RWS      -0.092900
      3 C5          14.7360    -2.1710    12.0480 c6         1 RWS      -0.073400
      4 C6          14.0240    -2.2150    10.6930 c6         1 RWS      -0.092900
      5 C7          13.0110    -3.3450    10.6150 c6         1 RWS       0.233800
      6 C            7.0660    -4.7120    11.8070 c3         1 RWS      -0.123400
      7 C1           8.4920    -4.4100    11.5180 cd         1 RWS       0.401700
      8 S            9.4590    -3.4120    12.5730 ss         1 RWS      -0.377800
      9 C2          10.7800    -3.6950    11.4660 cd         1 RWS       0.704300
     10 N            9.1490    -4.8400    10.5010 nc         1 RWS      -0.292000
     11 N2          11.9960    -3.1720    11.6500 nh         1 RWS      -0.779300
     12 C3          12.3470    -2.4330    12.8540 c6         1 RWS       0.233800
     13 H2          14.0500    -2.1350    14.1130 hc         1 RWS       0.052450
     14 H3          15.6280    -2.7990    12.0240 hc         1 RWS       0.044700
     15 H4          15.0780    -1.1530    12.2430 hc         1 RWS       0.044700
     16 H5          14.7430    -2.3340     9.8820 hc         1 RWS       0.052450
     17 H6          13.5070    -1.2710    10.5050 hc         1 RWS       0.052450
     18 H7          12.5200    -3.3440     9.6420 h1         1 RWS       0.055700
     19 H8          13.5050    -4.3170    10.7200 h1         1 RWS       0.055700
     20 H9           6.6690    -5.3620    11.0300 hc         1 RWS       0.057367
     21 H10          6.9540    -5.2140    12.7690 hc         1 RWS       0.057367
     22 H11          6.4650    -3.8020    11.8380 hc         1 RWS       0.057367
     23 H12         12.1260    -1.3660    12.7370 h1         1 RWS       0.055700
     24 H13         11.7440    -2.7960    13.6890 h1         1 RWS       0.055700
     25 H1          13.9680    -3.7150    13.3670 hc         1 RWS       0.052450
@<TRIPOS>BOND
     1     1     9 2   
     2     1    10 1   
     3     2     3 1   
     4     2    12 1   
     5     2    13 1   
     6     2    25 1   
     7     3     4 1   
     8     3    14 1   
     9     3    15 1   
    10     4     5 1   
    11     4    16 1   
    12     4    17 1   
    13     5    11 1   
    14     5    18 1   
    15     5    19 1   
    16     6     7 1   
    17     6    20 1   
    18     6    21 1   
    19     6    22 1   
    20     7     8 1   
    21     7    10 2   
    22     8     9 1   
    23     9    11 1   
    24    11    12 1   
    25    12    23 1   
    26    12    24 1   
@<TRIPOS>SUBSTRUCTURE
     1 RWS         1 TEMP              0 ****  ****    0 ROOT
