@<TRIPOS>MOLECULE
RWT
   47    50     1     0     0
SMALL
No Charge or Current Charge


@<TRIPOS>ATOM
      1 N1         -19.8860     4.6300    28.1130 ns         1 RWT      -0.148000
      2 C4         -22.0850     3.4510    33.1770 ca         1 RWT       0.001000
      3 C5         -22.2040     2.0600    33.2880 ca         1 RWT      -0.108000
      4 C6         -22.2480     1.2750    32.1320 ca         1 RWT       0.168000
      5 C7         -22.1790     1.8760    30.8680 ca         1 RWT      -0.116000
      6 C8         -22.0660     3.2810    30.7240 ca         1 RWT       0.017700
      7 C10        -18.5920     4.6960    27.5110 ca         1 RWT      -0.109000
      8 C13        -16.9230     5.9230    26.2450 ca         1 RWT      -0.113300
      9 C15        -17.2770     8.4130    25.7130 c6         1 RWT      -0.074400
     10 C17        -19.1980     7.0500    26.6640 c6         1 RWT      -0.031100
     11 C9         -20.6060     3.5700    28.6600 c          1 RWT       0.602100
     12 C1         -21.9950     3.9120    29.3040 c6         1 RWT      -0.126700
     13 C3         -22.0150     4.0660    31.9080 ca         1 RWT      -0.279500
     14 S          -21.8550     5.8550    31.8910 sy         1 RWT       1.163600
     15 O          -20.6590     6.2260    32.6490 o          1 RWT      -0.533000
     16 O1         -23.1480     6.4820    32.1720 o          1 RWT      -0.533000
     17 N          -21.4970     6.2020    30.3080 n7         1 RWT      -0.823300
     18 C2         -22.3080     5.4400    29.3390 c6         1 RWT       0.177800
     19 C          -23.0830     3.2720    28.3710 c3         1 RWT      -0.091100
     20 C18        -18.2230     5.8650    26.8020 ca         1 RWT      -0.049300
     21 C16        -18.7770     8.0840    25.5950 c6         1 RWT      -0.072400
     22 C14        -16.4300     7.1470    25.4620 c6         1 RWT      -0.027100
     23 C12        -16.0660     4.8180    26.3990 ca         1 RWT       0.333900
     24 N2         -16.4100     3.6990    27.0720 nb         1 RWT      -0.646000
     25 C11        -17.6460     3.6460    27.6170 ca         1 RWT       0.350900
     26 H1         -20.3680     5.5190    28.1330 hn         1 RWT       0.160000
     27 H2         -22.0470     4.0530    34.0850 ha         1 RWT       0.139000
     28 H3         -22.2570     1.5910    34.2670 ha         1 RWT       0.140000
     29 H4         -22.2010     1.2280    29.9980 ha         1 RWT       0.128000
     30 H5         -17.0620     8.8130    26.7140 hc         1 RWT       0.049200
     31 H6         -17.0010     9.1960    24.9940 hc         1 RWT       0.049200
     32 H7         -19.2790     7.5550    27.6370 hc         1 RWT       0.047700
     33 H8         -20.2070     6.6900    26.4190 hc         1 RWT       0.047700
     34 H9         -20.5110     5.9510    30.2800 hn         1 RWT       0.504000
     35 H10        -22.1770     5.8710    28.3350 h1         1 RWT       0.084700
     36 H11        -23.3750     5.5860    29.5770 h1         1 RWT       0.084700
     37 H12        -24.0830     3.3450    28.8170 hc         1 RWT       0.053033
     38 H13        -23.1220     3.7790    27.3980 hc         1 RWT       0.053033
     39 H14        -22.8950     2.2140    28.1580 hc         1 RWT       0.053033
     40 H15        -19.3760     8.9990    25.7040 hc         1 RWT       0.045700
     41 H16        -18.9900     7.6880    24.5920 hc         1 RWT       0.045700
     42 H17        -15.3810     7.3560    25.7120 hc         1 RWT       0.054200
     43 H18        -16.4460     6.9090    24.3890 hc         1 RWT       0.054200
     44 H19        -15.0630     4.8300    25.9730 h4         1 RWT       0.022100
     45 H20        -17.8580     2.7350    28.1700 h4         1 RWT       0.035100
     46 Cl         -22.3860    -0.4740    32.2650 cl         1 RWT      -0.192000
     47 O2         -20.1880     2.4180    28.6320 o          1 RWT      -0.591100
@<TRIPOS>BOND
     1     1     7 1   
     2     1    11 1   
     3     1    26 1   
     4     2     3 ar  
     5     2    13 ar  
     6     2    27 1   
     7     3     4 ar  
     8     3    28 1   
     9     4     5 ar  
    10     4    46 1   
    11     5     6 ar  
    12     5    29 1   
    13     6    12 1   
    14     6    13 ar  
    15     7    20 ar  
    16     7    25 ar  
    17     8    20 ar  
    18     8    22 1   
    19     8    23 ar  
    20     9    21 1   
    21     9    22 1   
    22     9    30 1   
    23     9    31 1   
    24    10    20 1   
    25    10    21 1   
    26    10    32 1   
    27    10    33 1   
    28    11    12 1   
    29    11    47 2   
    30    12    18 1   
    31    12    19 1   
    32    13    14 1   
    33    14    15 2   
    34    14    16 2   
    35    14    17 1   
    36    17    18 1   
    37    17    34 1   
    38    18    35 1   
    39    18    36 1   
    40    19    37 1   
    41    19    38 1   
    42    19    39 1   
    43    21    40 1   
    44    21    41 1   
    45    22    42 1   
    46    22    43 1   
    47    23    24 ar  
    48    23    44 1   
    49    24    25 ar  
    50    25    45 1   
@<TRIPOS>SUBSTRUCTURE
     1 RWT         1 TEMP              0 ****  ****    0 ROOT
