@<TRIPOS>MOLECULE
RWT
   47    50     1     0     0
SMALL
abcg2


@<TRIPOS>ATOM
      1 N1         -19.9920     4.5550    27.9960 ns         1 RWT      -0.148000
      2 C4         -22.2490     2.6900    33.0030 ca         1 RWT       0.001000
      3 C5         -22.2620     1.3800    32.5580 ca         1 RWT      -0.108000
      4 C6         -22.1160     1.1450    31.1970 ca         1 RWT       0.168000
      5 C7         -21.9730     2.1820    30.2900 ca         1 RWT      -0.116000
      6 C8         -21.9750     3.5100    30.7210 ca         1 RWT       0.017700
      7 C10        -18.6690     4.6500    27.4910 ca         1 RWT      -0.109000
      8 C13        -17.0090     5.7080    26.1410 ca         1 RWT      -0.113300
      9 C15        -17.4410     7.9980    25.1830 c6         1 RWT      -0.074400
     10 C17        -19.3580     6.6860    26.1600 c6         1 RWT      -0.031100
     11 C9         -20.3020     4.6360    29.3070 c          1 RWT       0.602100
     12 C1         -21.8010     4.6190    29.6810 c6         1 RWT      -0.126700
     13 C3         -22.0980     3.7380    32.0970 ca         1 RWT      -0.279500
     14 S          -22.0720     5.3780    32.7680 sy         1 RWT       1.163600
     15 O          -21.1250     5.4380    33.8550 o          1 RWT      -0.533000
     16 O1         -23.4360     5.7790    33.0190 o          1 RWT      -0.533000
     17 N          -21.4790     6.2950    31.5500 n7         1 RWT      -0.823300
     18 C2         -22.1200     6.0210    30.2620 c6         1 RWT       0.177800
     19 C          -22.7610     4.4150    28.5010 c3         1 RWT      -0.091100
     20 C18        -18.3350     5.6620    26.5860 ca         1 RWT      -0.049300
     21 C16        -18.8950     7.5710    25.0030 c6         1 RWT      -0.072400
     22 C14        -16.5370     6.7670    25.1750 c6         1 RWT      -0.027100
     23 C12        -16.1180     4.7550    26.6290 ca         1 RWT       0.333900
     24 N2         -16.4440     3.7840    27.4850 nb         1 RWT      -0.646000
     25 C11        -17.7090     3.7360    27.9010 ca         1 RWT       0.350900
     26 H1         -20.7430     4.5500    27.3230 hn         1 RWT       0.160000
     27 H2         -22.3440     2.8980    34.0600 ha         1 RWT       0.139000
     28 H3         -22.3740     0.5600    33.2530 ha         1 RWT       0.140000
     29 H4         -21.8550     1.9510    29.2410 ha         1 RWT       0.128000
     30 H5         -17.3290     8.5320    26.1320 hc         1 RWT       0.049200
     31 H6         -17.1400     8.6840    24.3890 hc         1 RWT       0.049200
     32 H7         -19.5890     7.3050    27.0340 hc         1 RWT       0.047700
     33 H8         -20.2940     6.1900    25.8950 hc         1 RWT       0.047700
     34 H9         -20.4690     6.1710    31.4980 hn         1 RWT       0.504000
     35 H10        -21.8030     6.7880    29.5560 h1         1 RWT       0.084700
     36 H11        -23.1980     6.1150    30.3890 h1         1 RWT       0.084700
     37 H12        -23.7820     4.3530    28.8780 hc         1 RWT       0.053033
     38 H13        -22.7110     5.2640    27.8160 hc         1 RWT       0.053033
     39 H14        -22.5550     3.5050    27.9400 hc         1 RWT       0.053033
     40 H15        -19.5510     8.4400    24.9290 hc         1 RWT       0.045700
     41 H16        -18.9880     7.0200    24.0610 hc         1 RWT       0.045700
     42 H17        -15.5050     7.0360    25.4130 hc         1 RWT       0.054200
     43 H18        -16.5200     6.3430    24.1650 hc         1 RWT       0.054200
     44 H19        -15.0810     4.7870    26.3080 h4         1 RWT       0.022100
     45 H20        -17.9790     2.9460    28.5920 h4         1 RWT       0.035100
     46 CL         -22.1100    -0.4990    30.6120 cl         1 RWT      -0.192000
     47 O2         -19.4550     4.7550    30.1890 o          1 RWT      -0.591100
@<TRIPOS>BOND
     1     1     7 1   
     2     1    11 1   
     3     1    26 1   
     4     2     3 ar  
     5     2    13 ar  
     6     2    27 1   
     7     3     4 ar  
     8     3    28 1   
     9     4     5 ar  
    10     4    46 1   
    11     5     6 ar  
    12     5    29 1   
    13     6    12 1   
    14     6    13 ar  
    15     7    20 ar  
    16     7    25 ar  
    17     8    20 ar  
    18     8    22 1   
    19     8    23 ar  
    20     9    21 1   
    21     9    22 1   
    22     9    30 1   
    23     9    31 1   
    24    10    20 1   
    25    10    21 1   
    26    10    32 1   
    27    10    33 1   
    28    11    12 1   
    29    11    47 2   
    30    12    18 1   
    31    12    19 1   
    32    13    14 1   
    33    14    15 2   
    34    14    16 2   
    35    14    17 1   
    36    17    18 1   
    37    17    34 1   
    38    18    35 1   
    39    18    36 1   
    40    19    37 1   
    41    19    38 1   
    42    19    39 1   
    43    21    40 1   
    44    21    41 1   
    45    22    42 1   
    46    22    43 1   
    47    23    24 ar  
    48    23    44 1   
    49    24    25 ar  
    50    25    45 1   
@<TRIPOS>SUBSTRUCTURE
     1 RWT         1 TEMP              0 ****  ****    0 ROOT
