@<TRIPOS>MOLECULE
RWY
   32    33     1     0     0
SMALL
No Charge or Current Charge


@<TRIPOS>ATOM
      1 NAA         -8.0280     0.2990    -1.3910 n1         1 RWY      -0.408000
      2 CAB         -7.2000     0.2010    -0.5780 c1         1 RWY       0.321100
      3 CAC          6.4420    -1.1930    -1.0700 ca         1 RWY      -0.143000
      4 CAD          6.6180    -0.0080    -0.3330 ca         1 RWY      -0.078000
      5 CAE          5.1990    -1.8500    -1.0640 ca         1 RWY      -0.078000
      6 CAF          5.5470     0.5220     0.4070 ca         1 RWY      -0.161000
      7 CAG          4.1290    -1.3190    -0.3230 ca         1 RWY      -0.161000
      8 CAH         -0.4090     0.2140     1.2730 ca         1 RWY      -0.161000
      9 CAI          0.2800     0.6330    -1.0240 ca         1 RWY      -0.161000
     10 CAJ          0.9410     0.2100     1.6730 ca         1 RWY      -0.080000
     11 CAK          1.6290     0.6290    -0.6250 ca         1 RWY      -0.080000
     12 CAL         -3.1650     0.2380     0.3430 c3         1 RWY       0.171600
     13 CAM         -4.4440     0.3210    -0.5060 c3         1 RWY       0.033600
     14 SAP         -5.9410     0.0710     0.5460 ss         1 RWY      -0.140100
     15 CAQ         -0.7420     0.4250    -0.0840 ca         1 RWY       0.137100
     16 CAR          4.3000    -0.1240     0.4050 ca         1 RWY       0.133100
     17 CAS          1.9600     0.4050     0.7260 ca         1 RWY       0.063100
     18 HAC          7.2710    -1.6040    -1.6430 ha         1 RWY       0.115000
     19 HAD          7.5820     0.4970    -0.3350 ha         1 RWY       0.113000
     20 HAE          5.0670    -2.7700    -1.6290 ha         1 RWY       0.113000
     21 HAF          5.6810     1.4370     0.9790 ha         1 RWY       0.125500
     22 HAG          3.1730    -1.8360    -0.3120 ha         1 RWY       0.125500
     23 HAH         -1.1750     0.0550     2.0260 ha         1 RWY       0.126500
     24 HAI          0.0250     0.8020    -2.0670 ha         1 RWY       0.126500
     25 HAJ          1.1980     0.0500     2.7170 ha         1 RWY       0.131500
     26 HAK          2.4100     0.8020    -1.3610 ha         1 RWY       0.131500
     27 HAL         -3.1930     1.0120     1.1220 h1         1 RWY       0.049200
     28 HALA        -3.1090    -0.7470     0.8250 h1         1 RWY       0.049200
     29 HAM         -4.5030     1.3050    -0.9880 h1         1 RWY       0.089200
     30 HAMA        -4.4190    -0.4520    -1.2850 h1         1 RWY       0.089200
     31 OAO          3.2710     0.4090     1.1490 os         1 RWY      -0.251200
     32 OAN         -2.0450     0.4400    -0.5360 os         1 RWY      -0.343100
@<TRIPOS>BOND
     1     1     2 3   
     2     2    14 1   
     3     3     4 ar  
     4     3     5 ar  
     5     3    18 1   
     6     4     6 ar  
     7     4    19 1   
     8     5     7 ar  
     9     5    20 1   
    10     6    16 ar  
    11     6    21 1   
    12     7    16 ar  
    13     7    22 1   
    14     8    10 ar  
    15     8    15 ar  
    16     8    23 1   
    17     9    11 ar  
    18     9    15 ar  
    19     9    24 1   
    20    10    17 ar  
    21    10    25 1   
    22    11    17 ar  
    23    11    26 1   
    24    12    13 1   
    25    12    27 1   
    26    12    28 1   
    27    12    32 1   
    28    13    14 1   
    29    13    29 1   
    30    13    30 1   
    31    15    32 1   
    32    16    31 1   
    33    17    31 1   
@<TRIPOS>SUBSTRUCTURE
     1 RWY         1 TEMP              0 ****  ****    0 ROOT
