@<TRIPOS>MOLECULE
RWY
   32    33     1     0     0
SMALL
bcc


@<TRIPOS>ATOM
      1 NAA         -7.8890    -0.1640    -0.9040 n1         1 RWY      -0.318800
      2 CAB         -6.9230    -0.3010    -0.2860 c1         1 RWY       0.231900
      3 CAC          6.1750    -1.6730    -0.6170 ca         1 RWY      -0.161000
      4 CAD          6.5230    -0.5170     0.0720 ca         1 RWY      -0.096000
      5 CAE          4.8360    -1.9310    -0.8680 ca         1 RWY      -0.096000
      6 CAF          5.5500     0.3700     0.5020 ca         1 RWY      -0.179000
      7 CAG          3.8450    -1.0540    -0.4400 ca         1 RWY      -0.179000
      8 CAH         -0.2400     0.1880     0.9770 ca         1 RWY      -0.179000
      9 CAI          0.1700     1.2850    -1.1270 ca         1 RWY      -0.179000
     10 CAJ          1.1150     0.2840     1.2780 ca         1 RWY      -0.098000
     11 CAK          1.5140     1.3800    -0.8220 ca         1 RWY      -0.098000
     12 CAL         -2.9590     0.0810     0.2630 c3         1 RWY       0.148400
     13 CAM         -4.2940     0.1870    -0.4530 c3         1 RWY      -0.014300
     14 SAP         -5.5580    -0.5300     0.6640 ss         1 RWY      -0.092200
     15 CAQ         -0.7160     0.6860    -0.2310 ca         1 RWY       0.137100
     16 CAR          4.2080     0.1000     0.2460 ca         1 RWY       0.133100
     17 CAS          1.9860     0.8800     0.3850 ca         1 RWY       0.063100
     18 HAC          6.9380    -2.3620    -0.9530 ha         1 RWY       0.133000
     19 HAD          7.5640    -0.2980     0.2750 ha         1 RWY       0.131000
     20 HAE          4.5460    -2.8270    -1.4020 ha         1 RWY       0.131000
     21 HAF          5.8240     1.2710     1.0360 ha         1 RWY       0.143500
     22 HAG          2.8080    -1.2830    -0.6440 ha         1 RWY       0.143500
     23 HAH         -0.8950    -0.2820     1.6980 ha         1 RWY       0.144500
     24 HAI         -0.2030     1.6780    -2.0650 ha         1 RWY       0.144500
     25 HAJ          1.4820    -0.1070     2.2180 ha         1 RWY       0.149500
     26 HAK          2.1920     1.8530    -1.5210 ha         1 RWY       0.149500
     27 HAL         -2.9860     0.6300     1.2100 h1         1 RWY       0.049200
     28 HALA        -2.7260    -0.9670     0.4820 h1         1 RWY       0.049200
     29 HAM         -4.5520     1.2260    -0.6500 h1         1 RWY       0.089200
     30 HAMA        -4.2860    -0.3820    -1.3810 h1         1 RWY       0.089200
     31 OAO          3.3130     1.0150     0.7130 os         1 RWY      -0.251200
     32 OAN         -2.0100     0.6380    -0.6180 os         1 RWY      -0.319900
@<TRIPOS>BOND
     1     1     2 3   
     2     2    14 1   
     3     3     4 ar  
     4     3     5 ar  
     5     3    18 1   
     6     4     6 ar  
     7     4    19 1   
     8     5     7 ar  
     9     5    20 1   
    10     6    16 ar  
    11     6    21 1   
    12     7    16 ar  
    13     7    22 1   
    14     8    10 ar  
    15     8    15 ar  
    16     8    23 1   
    17     9    11 ar  
    18     9    15 ar  
    19     9    24 1   
    20    10    17 ar  
    21    10    25 1   
    22    11    17 ar  
    23    11    26 1   
    24    12    13 1   
    25    12    27 1   
    26    12    28 1   
    27    12    32 1   
    28    13    14 1   
    29    13    29 1   
    30    13    30 1   
    31    15    32 1   
    32    16    31 1   
    33    17    31 1   
@<TRIPOS>SUBSTRUCTURE
     1 RWY         1 TEMP              0 ****  ****    0 ROOT
