@<TRIPOS>MOLECULE
RWZ
   62    64     1     0     0
SMALL
bcc


@<TRIPOS>ATOM
      1 CAA          2.4650     2.2110     0.2170 c3         1 RWZ      -0.058900
      2 CAB          4.2240     4.0220     0.2620 c3         1 RWZ      -0.058900
      3 CAC          6.1890    -2.7840     0.4240 c3         1 RWZ      -0.056900
      4 CAD          4.8710     1.6770     0.6990 c2         1 RWZ      -0.171200
      5 CAE          3.9470    -2.6690    -0.6220 c2         1 RWZ      -0.184200
      6 CAF          4.7240     0.1950     0.8470 c3         1 RWZ      -0.041200
      7 CAG          2.7550    -2.0150    -1.2540 c3         1 RWZ       0.197000
      8 CAH          0.5990    -1.0010    -0.8490 c3         1 RWZ       0.152800
      9 CAI         -0.4290    -0.6440     0.2130 c3         1 RWZ       0.157800
     10 CAJ          5.2600    -0.5590    -0.3830 c3         1 RWZ      -0.037200
     11 CAK         -6.1120     0.2090    -0.2930 c6         1 RWZ      -0.069400
     12 CAL         -4.0830     1.2220    -1.3500 c6         1 RWZ      -0.065150
     13 CAM         -4.6420     1.7380     1.0290 c6         1 RWZ      -0.065150
     14 CAN         -4.1300    -1.2170    -0.8300 c6         1 RWZ      -0.065150
     15 CAO         -4.6910    -0.6970     1.5510 c6         1 RWZ      -0.065150
     16 NAP          1.7600    -1.6350    -0.2590 n7         1 RWZ      -0.807200
     17 NAQ         -1.5140     0.1190    -0.3680 n7         1 RWZ      -0.816200
     18 CAR          3.9100     2.5620     0.4160 c2         1 RWZ      -0.113400
     19 CAS          5.0650    -2.0450    -0.2400 c2         1 RWZ      -0.089400
     20 CAT         -4.9710    -0.0230    -1.2890 c6         1 RWZ      -0.058700
     21 CAU         -5.5330     0.4960     1.0960 c6         1 RWZ      -0.058700
     22 CAV         -3.5000     1.5030     0.0380 c6         1 RWZ      -0.056200
     23 CAW         -3.5500    -0.9350     0.5580 c6         1 RWZ      -0.056200
     24 CAX         -2.6540     0.3140     0.5130 c6         1 RWZ       0.185500
     25 HAA          1.8330     2.7660     0.9160 hc         1 RWZ       0.038867
     26 HAAA         2.1350     2.4940    -0.7860 hc         1 RWZ       0.038867
     27 HAAB         2.2550     1.1510     0.3460 hc         1 RWZ       0.038867
     28 HAB          3.6530     4.6240     0.9740 hc         1 RWZ       0.038867
     29 HABA         5.2820     4.2330     0.4180 hc         1 RWZ       0.038867
     30 HABB         3.9500     4.3800    -0.7340 hc         1 RWZ       0.038867
     31 HAC          7.0890    -2.7640    -0.1960 hc         1 RWZ       0.040033
     32 HACA         6.4580    -2.3170     1.3740 hc         1 RWZ       0.040033
     33 HACB         5.9370    -3.8260     0.6210 hc         1 RWZ       0.040033
     34 HAD          5.8870     2.0540     0.8010 ha         1 RWZ       0.111000
     35 HAE          3.8650    -3.7370    -0.4360 ha         1 RWZ       0.115000
     36 HAF          5.2720    -0.1360     1.7350 hc         1 RWZ       0.054200
     37 HAFA         3.6850    -0.0980     0.9970 hc         1 RWZ       0.054200
     38 HAG          3.0520    -1.1070    -1.7830 h1         1 RWZ       0.033200
     39 HAGA         2.3350    -2.6890    -2.0180 h1         1 RWZ       0.033200
     40 HAH          0.1110    -1.6170    -1.6210 h1         1 RWZ       0.036200
     41 HAHA         0.9350    -0.0860    -1.3510 h1         1 RWZ       0.036200
     42 HAI         -0.8320    -1.5690     0.6380 h1         1 RWZ       0.034200
     43 HAIA         0.0710    -0.1190     1.0420 h1         1 RWZ       0.034200
     44 HAJ          4.7470    -0.1780    -1.2680 hc         1 RWZ       0.044200
     45 HAJA         6.3210    -0.3320    -0.5190 hc         1 RWZ       0.044200
     46 HAKA        -6.7580    -0.6740    -0.2540 hc         1 RWZ       0.038200
     47 HAL         -3.2830     1.0790    -2.0800 hc         1 RWZ       0.041325
     48 HALA        -4.6640     2.0870    -1.6870 hc         1 RWZ       0.041325
     49 HAM         -5.2270     2.6100     0.7200 hc         1 RWZ       0.041325
     50 HAMA        -4.2400     1.9680     2.0220 hc         1 RWZ       0.041325
     51 HAN         -4.7460    -2.1220    -0.7970 hc         1 RWZ       0.041325
     52 HANA        -3.3230    -1.4070    -1.5410 hc         1 RWZ       0.041325
     53 HAO         -4.2900    -0.5170     2.5540 hc         1 RWZ       0.041325
     54 HAOA        -5.3150    -1.5940     1.6210 hc         1 RWZ       0.041325
     55 HNAP         1.4660    -2.4680     0.2400 hn         1 RWZ       0.349800
     56 HNAQ        -1.1550     1.0260    -0.6440 hn         1 RWZ       0.354800
     57 HAT         -5.3880    -0.2260    -2.2800 hc         1 RWZ       0.047700
     58 HAU         -6.3460     0.6640     1.8080 hc         1 RWZ       0.047700
     59 HAV         -2.8650     2.3960     0.0010 hc         1 RWZ       0.044200
     60 HAW         -2.9660    -1.7980     0.8930 hc         1 RWZ       0.044200
     61 HAX         -2.3180     0.5320     1.5440 h1         1 RWZ       0.021700
     62 HAK         -6.7380     1.0450    -0.6210 hc         1 RWZ       0.038200
@<TRIPOS>BOND
     1     1    18 1   
     2     1    25 1   
     3     1    26 1   
     4     1    27 1   
     5     2    18 1   
     6     2    28 1   
     7     2    29 1   
     8     2    30 1   
     9     3    19 1   
    10     3    31 1   
    11     3    32 1   
    12     3    33 1   
    13     4     6 1   
    14     4    18 2   
    15     4    34 1   
    16     5     7 1   
    17     5    19 2   
    18     5    35 1   
    19     6    10 1   
    20     6    36 1   
    21     6    37 1   
    22     7    16 1   
    23     7    38 1   
    24     7    39 1   
    25     8     9 1   
    26     8    16 1   
    27     8    40 1   
    28     8    41 1   
    29     9    17 1   
    30     9    42 1   
    31     9    43 1   
    32    10    19 1   
    33    10    44 1   
    34    10    45 1   
    35    11    20 1   
    36    11    21 1   
    37    11    46 1   
    38    11    62 1   
    39    12    20 1   
    40    12    22 1   
    41    12    47 1   
    42    12    48 1   
    43    13    21 1   
    44    13    22 1   
    45    13    49 1   
    46    13    50 1   
    47    14    20 1   
    48    14    23 1   
    49    14    51 1   
    50    14    52 1   
    51    15    21 1   
    52    15    23 1   
    53    15    53 1   
    54    15    54 1   
    55    16    55 1   
    56    17    24 1   
    57    17    56 1   
    58    20    57 1   
    59    21    58 1   
    60    22    24 1   
    61    22    59 1   
    62    23    24 1   
    63    23    60 1   
    64    24    61 1   
@<TRIPOS>SUBSTRUCTURE
     1 RWZ         1 TEMP              0 ****  ****    0 ROOT
