@<TRIPOS>MOLECULE
RWZ
   62    64     1     0     0
SMALL
No Charge or Current Charge


@<TRIPOS>ATOM
      1 CAA          2.5260     2.1720     0.2600 c3         1 RWZ      -0.058900
      2 CAB          4.0960     3.9460     1.1300 c3         1 RWZ      -0.058900
      3 CAC          6.1470    -2.7720     0.3520 c3         1 RWZ      -0.056900
      4 CAD          4.7690     1.5320     1.2910 c2         1 RWZ      -0.221200
      5 CAE          4.0590    -2.6410    -1.0350 c2         1 RWZ      -0.234200
      6 CAF          4.6480     0.0220     1.1670 c3         1 RWZ      -0.041200
      7 CAG          2.9030    -2.0150    -1.7820 c3         1 RWZ       0.197000
      8 CAH          0.6510    -1.0270    -1.3890 c3         1 RWZ       0.152800
      9 CAI         -0.3690    -0.6400    -0.2830 c3         1 RWZ       0.157800
     10 CAJ          5.1550    -0.4970    -0.1960 c3         1 RWZ      -0.037200
     11 CAK         -6.1730     0.1160     0.1870 c6         1 RWZ      -0.069400
     12 CAL         -4.4780     0.6370    -1.6300 c6         1 RWZ      -0.065150
     13 CAM         -4.5730     2.0710     0.4620 c6         1 RWZ      -0.065150
     14 CAN         -4.2030    -1.4410    -0.1940 c6         1 RWZ      -0.065150
     15 CAO         -4.3010    -0.0070     1.8980 c6         1 RWZ      -0.065150
     16 NAP          1.8460    -1.6880    -0.8180 n7         1 RWZ      -0.862400
     17 NAQ         -1.5510     0.0510    -0.8510 n7         1 RWZ      -0.871400
     18 CAR          3.8650     2.4600     0.9220 c2         1 RWZ      -0.113400
     19 CAS          5.0320    -2.0110    -0.3460 c2         1 RWZ      -0.089400
     20 CAT         -5.2340    -0.5040    -0.8880 c6         1 RWZ      -0.058700
     21 CAU         -5.3310     0.9350     1.2100 c6         1 RWZ      -0.058700
     22 CAV         -3.6250     1.4550    -0.6110 c6         1 RWZ      -0.056200
     23 CAW         -3.3520    -0.6250     0.8270 c6         1 RWZ      -0.056200
     24 CAX         -2.5830     0.5310     0.1000 c6         1 RWZ       0.185500
     25 HAA          1.6940     2.4910     0.8990 hc         1 RWZ       0.038867
     26 HAAA         2.4370     2.7050    -0.6930 hc         1 RWZ       0.038867
     27 HAAB         2.3820     1.1090     0.0430 hc         1 RWZ       0.038867
     28 HAB          3.3160     4.3810     1.7670 hc         1 RWZ       0.038867
     29 HABA         5.0610     4.1460     1.6090 hc         1 RWZ       0.038867
     30 HABB         4.0860     4.4850     0.1740 hc         1 RWZ       0.038867
     31 HAC          7.1310    -2.4730    -0.0310 hc         1 RWZ       0.040033
     32 HACA         6.1400    -2.5930     1.4330 hc         1 RWZ       0.040033
     33 HACB         6.0560    -3.8550     0.2020 hc         1 RWZ       0.040033
     34 HAD          5.7040     1.8490     1.7550 ha         1 RWZ       0.161000
     35 HAE          4.0590    -3.7290    -1.0960 ha         1 RWZ       0.165000
     36 HAF          5.2160    -0.4550     1.9750 hc         1 RWZ       0.054200
     37 HAFA         3.6090    -0.2990     1.3060 hc         1 RWZ       0.054200
     38 HAG          3.2370    -1.1170    -2.3190 h1         1 RWZ       0.033200
     39 HAGA         2.5290    -2.7250    -2.5330 h1         1 RWZ       0.033200
     40 HAH          0.1570    -1.6900    -2.1120 h1         1 RWZ       0.036200
     41 HAHA         0.9480    -0.1140    -1.9240 h1         1 RWZ       0.036200
     42 HAI         -0.6740    -1.5540     0.2440 h1         1 RWZ       0.034200
     43 HAIA         0.1320     0.0120     0.4460 h1         1 RWZ       0.034200
     44 HAJ          4.5900     0.0170    -0.9810 hc         1 RWZ       0.044200
     45 HAJA         6.1970    -0.1850    -0.3370 hc         1 RWZ       0.044200
     46 HAKA        -6.7320    -0.6760     0.7050 hc         1 RWZ       0.038200
     47 HAL         -3.8390     0.2170    -2.4190 hc         1 RWZ       0.041325
     48 HALA        -5.1960     1.2970    -2.1370 hc         1 RWZ       0.041325
     49 HAM         -5.2900     2.7550    -0.0140 hc         1 RWZ       0.041325
     50 HAMA        -3.9960     2.6750     1.1750 hc         1 RWZ       0.041325
     51 HAN         -4.7240    -2.2620     0.3180 hc         1 RWZ       0.041325
     52 HANA        -3.5530    -1.9130    -0.9450 hc         1 RWZ       0.041325
     53 HAO         -3.7170     0.5500     2.6440 hc         1 RWZ       0.041325
     54 HAOA        -4.8230    -0.8040     2.4460 hc         1 RWZ       0.041325
     55 HNAP         1.5530    -2.5590    -0.3630 hn         1 RWZ       0.405000
     56 HNAQ        -1.2080     0.8650    -1.3730 hn         1 RWZ       0.410000
     57 HAT         -5.8300    -1.0810    -1.6090 hc         1 RWZ       0.047700
     58 HAU         -5.9950     1.3720     1.9680 hc         1 RWZ       0.047700
     59 HAV         -3.1030     2.2670    -1.1360 hc         1 RWZ       0.044200
     60 HAW         -2.6430    -1.2940     1.3330 hc         1 RWZ       0.044200
     61 HAX         -2.0660     1.1340     0.8610 h1         1 RWZ       0.021700
     62 HAK         -6.9220     0.7630    -0.2900 hc         1 RWZ       0.038200
@<TRIPOS>BOND
     1     1    18 1   
     2     1    25 1   
     3     1    26 1   
     4     1    27 1   
     5     2    18 1   
     6     2    28 1   
     7     2    29 1   
     8     2    30 1   
     9     3    19 1   
    10     3    31 1   
    11     3    32 1   
    12     3    33 1   
    13     4     6 1   
    14     4    18 2   
    15     4    34 1   
    16     5     7 1   
    17     5    19 2   
    18     5    35 1   
    19     6    10 1   
    20     6    36 1   
    21     6    37 1   
    22     7    16 1   
    23     7    38 1   
    24     7    39 1   
    25     8     9 1   
    26     8    16 1   
    27     8    40 1   
    28     8    41 1   
    29     9    17 1   
    30     9    42 1   
    31     9    43 1   
    32    10    19 1   
    33    10    44 1   
    34    10    45 1   
    35    11    20 1   
    36    11    21 1   
    37    11    46 1   
    38    11    62 1   
    39    12    20 1   
    40    12    22 1   
    41    12    47 1   
    42    12    48 1   
    43    13    21 1   
    44    13    22 1   
    45    13    49 1   
    46    13    50 1   
    47    14    20 1   
    48    14    23 1   
    49    14    51 1   
    50    14    52 1   
    51    15    21 1   
    52    15    23 1   
    53    15    53 1   
    54    15    54 1   
    55    16    55 1   
    56    17    24 1   
    57    17    56 1   
    58    20    57 1   
    59    21    58 1   
    60    22    24 1   
    61    22    59 1   
    62    23    24 1   
    63    23    60 1   
    64    24    61 1   
@<TRIPOS>SUBSTRUCTURE
     1 RWZ         1 TEMP              0 ****  ****    0 ROOT
