@<TRIPOS>MOLECULE
RX0
   75    78     1     0     0
SMALL
bcc


@<TRIPOS>ATOM
      1 C1          -1.4470    -2.4510    -1.0670 cp         1 RX0      -0.018000
      2 C2          -2.3340    -3.1350    -0.2390 ca         1 RX0      -0.110500
      3 C3          -0.1790    -2.9850    -1.2720 ca         1 RX0      -0.110500
      4 C4          -1.9520    -4.3090     0.3920 ca         1 RX0      -0.129500
      5 C5           0.2110    -4.1570    -0.6350 ca         1 RX0      -0.129500
      6 C6          -0.6730    -4.8220     0.2020 ca         1 RX0      -0.128000
      7 O8           2.7210    -0.4090     1.5520 o          1 RX0      -0.593100
      8 N9           2.3140     0.7660    -0.3240 n          1 RX0      -0.474800
      9 C10          1.4810     2.9920    -0.8650 c6         1 RX0      -0.103400
     10 C11          0.0630     2.4330    -0.9490 c6         1 RX0      -0.070400
     11 C12         -0.0870     1.1850    -0.0750 c6         1 RX0      -0.111700
     12 C13          0.9940     0.1750    -0.4730 c6         1 RX0       0.091000
     13 C14          2.5130     1.9190    -1.1840 c6         1 RX0       0.097000
     14 C15         -1.5050     0.5440    -0.0160 c3         1 RX0       0.221100
     15 O16         -1.4420    -0.5790     0.8330 oh         1 RX0      -0.580800
     16 C17         -1.9620     0.0650    -1.3920 ca         1 RX0      -0.049300
     17 C18         -2.4540     1.0280    -2.2810 ca         1 RX0      -0.135000
     18 C19         -1.8940    -1.2620    -1.8470 cp         1 RX0      -0.009000
     19 C20         -2.8450     0.7250    -3.5740 ca         1 RX0      -0.132000
     20 C21         -2.2860    -1.5540    -3.1590 ca         1 RX0      -0.128000
     21 C22         -2.7550    -0.5830    -4.0240 ca         1 RX0      -0.127000
     22 C23         -2.5010     1.5500     0.5960 c3         1 RX0      -0.100400
     23 C24         -3.9060     1.0000     0.8040 c3         1 RX0      -0.073400
     24 C25         -4.8260     2.0260     1.4580 c3         1 RX0      -0.081400
     25 C26         -6.2090     1.4580     1.7050 c3         1 RX0       0.135400
     26 O27         -7.0280     2.4420     2.2900 os         1 RX0      -0.410600
     27 C28         -8.3230     1.9720     2.5620 c3         1 RX0       0.124700
     28 C29          5.4300     0.7290    -0.1620 c5         1 RX0      -0.101400
     29 C30          6.7470     0.6210     0.6090 c5         1 RX0       0.147100
     30 C31          6.3200     0.0540     1.9590 c5         1 RX0       0.168500
     31 C32          5.0930     0.9080     2.2640 c5         1 RX0      -0.069400
     32 C33          4.4030     1.1750     0.9080 c5         1 RX0      -0.129700
     33 N35          5.9450    -1.3420     1.8090 n8         1 RX0      -0.878800
     34 H2          -3.3320    -2.7440    -0.0860 ha         1 RX0       0.129000
     35 H3           0.5130    -2.4800    -1.9340 ha         1 RX0       0.129000
     36 H4          -2.6530    -4.8260     1.0340 ha         1 RX0       0.128500
     37 H5           1.2060    -4.5520    -0.8000 ha         1 RX0       0.128500
     38 H6          -0.3750    -5.7390     0.6940 ha         1 RX0       0.128000
     39 H10          1.5960     3.8250    -1.5610 hc         1 RX0       0.046200
     40 H10A         1.6730     3.3820     0.1390 hc         1 RX0       0.046200
     41 H11         -0.6470     3.2100    -0.6590 hc         1 RX0       0.045700
     42 H11A        -0.1530     2.1830    -1.9920 hc         1 RX0       0.045700
     43 H12          0.1290     1.4910     0.9600 hc         1 RX0       0.049700
     44 H13          0.8700    -0.1180    -1.5210 h1         1 RX0       0.075200
     45 H13A         0.9410    -0.7240     0.1310 h1         1 RX0       0.075200
     46 H14          3.5210     2.3110    -1.0900 h1         1 RX0       0.051200
     47 H14A         2.4020     1.5930    -2.2230 h1         1 RX0       0.051200
     48 HO16        -1.1210    -0.2810     1.6910 ho         1 RX0       0.409000
     49 H18         -2.5420     2.0560    -1.9590 ha         1 RX0       0.128000
     50 H20         -3.2190     1.5090    -4.2190 ha         1 RX0       0.131000
     51 H21         -2.2260    -2.5810    -3.4960 ha         1 RX0       0.135000
     52 H22         -3.0540    -0.8460    -5.0300 ha         1 RX0       0.132000
     53 H23         -2.0890     1.8620     1.5640 hc         1 RX0       0.042200
     54 H23A        -2.5560     2.4630     0.0020 hc         1 RX0       0.042200
     55 H24         -4.3310     0.6920    -0.1550 hc         1 RX0       0.050700
     56 H24A        -3.8630     0.1020     1.4260 hc         1 RX0       0.050700
     57 H25         -4.3940     2.3560     2.4080 hc         1 RX0       0.048700
     58 H25A        -4.9040     2.9120     0.8200 hc         1 RX0       0.048700
     59 H26         -6.6460     1.1080     0.7570 h1         1 RX0       0.020700
     60 H26A        -6.1380     0.5760     2.3600 h1         1 RX0       0.020700
     61 H28         -8.8950     2.7880     3.0050 h1         1 RX0       0.027367
     62 H28A        -8.8410     1.6410     1.6540 h1         1 RX0       0.027367
     63 H28B        -8.3170     1.1320     3.2680 h1         1 RX0       0.027367
     64 H29          5.4970     1.4270    -0.9970 hc         1 RX0       0.059200
     65 H29A         5.1710    -0.2490    -0.5700 hc         1 RX0       0.059200
     66 H30          7.1310     1.6370     0.7870 h1         1 RX0       0.021700
     67 H31          7.1010     0.2140     2.7170 h1         1 RX0       0.028700
     68 H32          4.4330     0.4360     2.9900 hc         1 RX0       0.057200
     69 H32A         5.4180     1.8570     2.6940 hc         1 RX0       0.057200
     70 H33          4.2230     2.2480     0.8170 hc         1 RX0       0.052700
     71 HN35         6.7740    -1.9090     1.6930 hn         1 RX0       0.347300
     72 HN3A         5.4990    -1.6640     2.6580 hn         1 RX0       0.347300
     73 C7           3.0750     0.4490     0.7540 c          1 RX0       0.679100
     74 O34          7.7290    -0.1800     0.0010 oh         1 RX0      -0.586800
     75 HO34         7.9850     0.2320    -0.8290 ho         1 RX0       0.403000
@<TRIPOS>BOND
     1     1     2 ar  
     2     1     3 ar  
     3     1    18 1   
     4     2     4 ar  
     5     2    34 1   
     6     3     5 ar  
     7     3    35 1   
     8     4     6 ar  
     9     4    36 1   
    10     5     6 ar  
    11     5    37 1   
    12     6    38 1   
    13     7    73 2   
    14     8    12 1   
    15     8    13 1   
    16     8    73 1   
    17     9    10 1   
    18     9    13 1   
    19     9    39 1   
    20     9    40 1   
    21    10    11 1   
    22    10    41 1   
    23    10    42 1   
    24    11    12 1   
    25    11    14 1   
    26    11    43 1   
    27    12    44 1   
    28    12    45 1   
    29    13    46 1   
    30    13    47 1   
    31    14    15 1   
    32    14    16 1   
    33    14    22 1   
    34    15    48 1   
    35    16    17 ar  
    36    16    18 ar  
    37    17    19 ar  
    38    17    49 1   
    39    18    20 ar  
    40    19    21 ar  
    41    19    50 1   
    42    20    21 ar  
    43    20    51 1   
    44    21    52 1   
    45    22    23 1   
    46    22    53 1   
    47    22    54 1   
    48    23    24 1   
    49    23    55 1   
    50    23    56 1   
    51    24    25 1   
    52    24    57 1   
    53    24    58 1   
    54    25    26 1   
    55    25    59 1   
    56    25    60 1   
    57    26    27 1   
    58    27    61 1   
    59    27    62 1   
    60    27    63 1   
    61    28    29 1   
    62    28    32 1   
    63    28    64 1   
    64    28    65 1   
    65    29    30 1   
    66    29    66 1   
    67    29    74 1   
    68    30    31 1   
    69    30    33 1   
    70    30    67 1   
    71    31    32 1   
    72    31    68 1   
    73    31    69 1   
    74    32    70 1   
    75    32    73 1   
    76    33    71 1   
    77    33    72 1   
    78    74    75 1   
@<TRIPOS>SUBSTRUCTURE
     1 RX0         1 TEMP              0 ****  ****    0 ROOT
