@<TRIPOS>MOLECULE
RX0
   75    78     1     0     0
SMALL
No Charge or Current Charge


@<TRIPOS>ATOM
      1 C1          -1.4510    -2.3870    -0.7440 cp         1 RX0      -0.018000
      2 C2          -2.3890    -3.0640     0.0730 ca         1 RX0      -0.092500
      3 C3          -0.1250    -2.8790    -0.7910 ca         1 RX0      -0.092500
      4 C4          -2.0020    -4.1680     0.8530 ca         1 RX0      -0.111500
      5 C5           0.2640    -3.9810    -0.0100 ca         1 RX0      -0.111500
      6 C6          -0.6730    -4.6230     0.8160 ca         1 RX0      -0.110000
      7 O8           3.1140    -1.3470    -0.1390 o          1 RX0      -0.593100
      8 N9           2.2530     0.7860     0.1180 n          1 RX0      -0.407800
      9 C10          1.3730     3.1480    -0.2250 c6         1 RX0      -0.103400
     10 C11         -0.0390     2.5940    -0.4840 c6         1 RX0      -0.070400
     11 C12         -0.2550     1.2990     0.3460 c6         1 RX0      -0.111700
     12 C13          0.8570     0.2710    -0.0160 c6         1 RX0       0.091000
     13 C14          2.4580     2.1030    -0.5610 c6         1 RX0       0.097000
     14 C15         -1.7010     0.6630     0.2570 c3         1 RX0       0.244300
     15 O16         -1.7460    -0.3880     1.2230 oh         1 RX0      -0.643000
     16 C17         -2.0090     0.1260    -1.1870 ca         1 RX0      -0.049300
     17 C18         -2.4220     1.0720    -2.1650 ca         1 RX0      -0.117000
     18 C19         -1.8760    -1.2480    -1.6110 cp         1 RX0      -0.009000
     19 C20         -2.7000     0.7060    -3.4890 ca         1 RX0      -0.114000
     20 C21         -2.1600    -1.5840    -2.9580 ca         1 RX0      -0.110000
     21 C22         -2.5690    -0.6250    -3.8890 ca         1 RX0      -0.109000
     22 C23         -2.8120     1.6540     0.7560 c3         1 RX0      -0.100400
     23 C24         -4.2610     1.0930     0.7360 c3         1 RX0      -0.073400
     24 C25         -5.3080     2.1160     1.2280 c3         1 RX0      -0.081400
     25 C26         -6.7450     1.5600     1.2060 c3         1 RX0       0.158600
     26 O27         -7.6230     2.5940     1.6800 os         1 RX0      -0.457000
     27 C28         -9.0110     2.2240     1.7170 c3         1 RX0       0.147900
     28 C29          5.6440     0.5730    -0.5780 c5         1 RX0      -0.101400
     29 C30          7.0720     0.4310     0.0540 c5         1 RX0       0.170300
     30 C31          6.7960     0.1550     1.5840 c5         1 RX0       0.168500
     31 C32          5.4230    -0.5550     1.5390 c5         1 RX0      -0.069400
     32 C33          4.6540     0.4390     0.6260 c5         1 RX0      -0.129700
     33 N35          7.8380    -0.6420     2.2560 n8         1 RX0      -0.989200
     34 H2          -3.4190    -2.7190     0.1030 ha         1 RX0       0.111000
     35 H3           0.6040    -2.4010    -1.4400 ha         1 RX0       0.111000
     36 H4          -2.7320    -4.6690     1.4850 ha         1 RX0       0.110500
     37 H5           1.2910    -4.3380    -0.0500 ha         1 RX0       0.110500
     38 H6          -0.3730    -5.4760     1.4200 ha         1 RX0       0.110000
     39 H10          1.5350     4.0550    -0.8240 hc         1 RX0       0.046200
     40 H10A         1.4670     3.4480     0.8270 hc         1 RX0       0.046200
     41 H11         -0.7730     3.3660    -0.2210 hc         1 RX0       0.045700
     42 H11A        -0.1530     2.3910    -1.5580 hc         1 RX0       0.045700
     43 H12         -0.1140     1.5690     1.4030 hc         1 RX0       0.049700
     44 H13          0.7130    -0.0630    -1.0530 h1         1 RX0       0.075200
     45 H13A         0.7470    -0.6140     0.6270 h1         1 RX0       0.075200
     46 H14          3.4330     2.5390    -0.3110 h1         1 RX0       0.051200
     47 H14A         2.4600     1.9320    -1.6470 h1         1 RX0       0.051200
     48 HO16        -1.6560     0.0320     2.1020 ho         1 RX0       0.448000
     49 H18         -2.5240     2.1230    -1.9130 ha         1 RX0       0.110000
     50 H20         -3.0120     1.4610    -4.2080 ha         1 RX0       0.113000
     51 H21         -2.0600    -2.6190    -3.2780 ha         1 RX0       0.117000
     52 H22         -2.7820    -0.9130    -4.9170 ha         1 RX0       0.114000
     53 H23         -2.5750     1.9640     1.7820 hc         1 RX0       0.042200
     54 H23A        -2.8020     2.5790     0.1730 hc         1 RX0       0.042200
     55 H24         -4.5230     0.7820    -0.2820 hc         1 RX0       0.050700
     56 H24A        -4.3210     0.1950     1.3650 hc         1 RX0       0.050700
     57 H25         -5.0600     2.4250     2.2510 hc         1 RX0       0.048700
     58 H25A        -5.2620     3.0120     0.5980 hc         1 RX0       0.048700
     59 H26         -7.0100     1.2660     0.1810 h1         1 RX0       0.020700
     60 H26A        -6.8070     0.6730     1.8500 h1         1 RX0       0.020700
     61 H28         -9.6190     3.0590     2.0880 h1         1 RX0       0.027367
     62 H28A        -9.3710     1.9580     0.7140 h1         1 RX0       0.027367
     63 H28B        -9.1680     1.3650     2.3820 h1         1 RX0       0.027367
     64 H29          5.5250     1.5300    -1.0990 hc         1 RX0       0.059200
     65 H29A         5.4660    -0.2110    -1.3250 hc         1 RX0       0.059200
     66 H30          7.6320     1.3700    -0.0510 h1         1 RX0       0.021700
     67 H31          6.7050     1.1010     2.1380 h1         1 RX0       0.028700
     68 H32          5.4950    -1.5610     1.1060 hc         1 RX0       0.057200
     69 H32A         4.9660    -0.6480     2.5310 hc         1 RX0       0.057200
     70 H33          4.5040     1.4100     1.1120 hc         1 RX0       0.052700
     71 HN35         8.1690    -1.3160     1.5550 hn         1 RX0       0.402500
     72 HN3A         8.6640    -0.0480     2.3930 hn         1 RX0       0.402500
     73 C7           3.3000    -0.1690     0.1420 c          1 RX0       0.612100
     74 O34          7.8130    -0.6290    -0.5680 oh         1 RX0      -0.649000
     75 HO34         7.9790    -0.3500    -1.4950 ho         1 RX0       0.442000
@<TRIPOS>BOND
     1     1     2 ar  
     2     1     3 ar  
     3     1    18 1   
     4     2     4 ar  
     5     2    34 1   
     6     3     5 ar  
     7     3    35 1   
     8     4     6 ar  
     9     4    36 1   
    10     5     6 ar  
    11     5    37 1   
    12     6    38 1   
    13     7    73 2   
    14     8    12 1   
    15     8    13 1   
    16     8    73 1   
    17     9    10 1   
    18     9    13 1   
    19     9    39 1   
    20     9    40 1   
    21    10    11 1   
    22    10    41 1   
    23    10    42 1   
    24    11    12 1   
    25    11    14 1   
    26    11    43 1   
    27    12    44 1   
    28    12    45 1   
    29    13    46 1   
    30    13    47 1   
    31    14    15 1   
    32    14    16 1   
    33    14    22 1   
    34    15    48 1   
    35    16    17 ar  
    36    16    18 ar  
    37    17    19 ar  
    38    17    49 1   
    39    18    20 ar  
    40    19    21 ar  
    41    19    50 1   
    42    20    21 ar  
    43    20    51 1   
    44    21    52 1   
    45    22    23 1   
    46    22    53 1   
    47    22    54 1   
    48    23    24 1   
    49    23    55 1   
    50    23    56 1   
    51    24    25 1   
    52    24    57 1   
    53    24    58 1   
    54    25    26 1   
    55    25    59 1   
    56    25    60 1   
    57    26    27 1   
    58    27    61 1   
    59    27    62 1   
    60    27    63 1   
    61    28    29 1   
    62    28    32 1   
    63    28    64 1   
    64    28    65 1   
    65    29    30 1   
    66    29    66 1   
    67    29    74 1   
    68    30    31 1   
    69    30    33 1   
    70    30    67 1   
    71    31    32 1   
    72    31    68 1   
    73    31    69 1   
    74    32    70 1   
    75    32    73 1   
    76    33    71 1   
    77    33    72 1   
    78    74    75 1   
@<TRIPOS>SUBSTRUCTURE
     1 RX0         1 TEMP              0 ****  ****    0 ROOT
