@<TRIPOS>MOLECULE
RX3
   78    82     1     0     0
SMALL
bcc


@<TRIPOS>ATOM
      1 C1          -1.6660    -2.0840    -4.8960 c          1 RX3       0.748100
      2 O2          -1.9160    -3.2380    -4.6240 o          1 RX3      -0.609000
      3 O1          -0.5600    -1.7040    -5.5620 os         1 RX3      -0.461900
      4 C2           0.3260    -2.7330    -5.9980 c3         1 RX3       0.207700
      5 C3           1.4840    -2.0750    -6.6900 ca         1 RX3      -0.091300
      6 C4           2.7840    -2.4780    -6.4000 ca         1 RX3      -0.110000
      7 C6           3.8650    -1.9150    -7.0670 ca         1 RX3      -0.133000
      8 C8           3.6550    -0.9280    -8.0200 ca         1 RX3      -0.129000
      9 C7           2.3600    -0.5120    -8.3060 ca         1 RX3      -0.133000
     10 C5           1.2810    -1.0850    -7.6510 ca         1 RX3      -0.110000
     11 P1          -3.7570     0.0240    -2.4460 p5         1 RX3       1.070400
     12 O4          -5.1220    -0.1370    -1.8130 o          1 RX3      -0.808500
     13 C9          -3.7000    -1.0810    -3.9380 c3         1 RX3      -0.054500
     14 N1          -2.4010    -1.0100    -4.5620 ns         1 RX3      -0.517900
     15 C10         -4.8140    -0.7060    -4.9270 c3         1 RX3      -0.044100
     16 C11         -4.7840    -1.5720    -6.1520 ca         1 RX3      -0.045300
     17 C12         -5.4220    -2.8110    -6.1660 ca         1 RX3      -0.125000
     18 C14         -5.3490    -3.6370    -7.2780 ca         1 RX3      -0.136000
     19 C16         -4.6290    -3.2390    -8.3980 ca         1 RX3      -0.154000
     20 C15         -3.9880    -2.0080    -8.3960 ca         1 RX3      -0.136000
     21 C13         -4.0690    -1.1820    -7.2820 ca         1 RX3      -0.125000
     22 C19         -1.3120     1.0440     0.1960 c          1 RX3       0.674100
     23 O5          -0.5260     0.9830     1.1370 o          1 RX3      -0.670100
     24 C18         -2.4900     0.0890     0.0450 c5         1 RX3      -0.115700
     25 C20         -2.5330    -1.0160     1.1110 c5         1 RX3      -0.058400
     26 C21         -2.0250    -2.2680     0.4060 c5         1 RX3      -0.075400
     27 C22         -2.6540    -2.1420    -0.9770 c5         1 RX3      -0.054400
     28 C17         -2.4740    -0.6600    -1.3270 c5         1 RX3      -0.261900
     29 N2          -1.2110     1.9540    -0.7780 ns         1 RX3      -0.533900
     30 C23         -0.2940     3.0630    -0.7120 c3         1 RX3      -0.021300
     31 C24         -0.7620     4.1770     0.2640 c          1 RX3       0.926600
     32 O6           0.0380     5.1270     0.3970 o          1 RX3      -0.841800
     33 C25         -0.0680     3.6290    -2.1200 c3         1 RX3      -0.011200
     34 C26          0.5970     2.6690    -3.0520 cc         1 RX3      -0.107400
     35 C27          0.0030     1.6420    -3.7280 cd         1 RX3      -0.111100
     36 C28          1.9910     2.6030    -3.3810 ca         1 RX3      -0.088800
     37 N3           0.9320     0.9530    -4.4580 na         1 RX3      -0.183400
     38 C29          2.1590     1.5150    -4.2680 ca         1 RX3      -0.061200
     39 C30          3.1130     3.3590    -3.0190 ca         1 RX3      -0.062000
     40 C31          3.4010     1.1710    -4.7990 ca         1 RX3      -0.161000
     41 C32          4.3460     3.0220    -3.5420 ca         1 RX3      -0.195000
     42 C33          4.4890     1.9380    -4.4250 ca         1 RX3      -0.141000
     43 OXT         -1.8630     4.0410     0.8210 o          1 RX3      -0.841800
     44 H21         -0.1970    -3.4070    -6.6830 h1         1 RX3       0.052200
     45 H22          0.6770    -3.3250    -5.1510 h1         1 RX3       0.052200
     46 H4           2.9530    -3.2400    -5.6480 ha         1 RX3       0.137500
     47 H6           4.8700    -2.2400    -6.8320 ha         1 RX3       0.125500
     48 H8           4.4960    -0.4800    -8.5330 ha         1 RX3       0.122000
     49 H7           2.1930     0.2600    -9.0450 ha         1 RX3       0.125500
     50 H5           0.2770    -0.7590    -7.8940 ha         1 RX3       0.137500
     51 H9          -3.8560    -2.1080    -3.6070 h1         1 RX3       0.081700
     52 HN1         -2.1240    -0.1160    -4.9360 hn         1 RX3       0.327500
     53 H101        -5.7720    -0.7980    -4.4130 hc         1 RX3       0.069700
     54 H102        -4.7050     0.3450    -5.2080 hc         1 RX3       0.069700
     55 H12         -5.9850    -3.1320    -5.2970 ha         1 RX3       0.132000
     56 H14         -5.8580    -4.5930    -7.2730 ha         1 RX3       0.112500
     57 H16         -4.5720    -3.8840    -9.2660 ha         1 RX3       0.109000
     58 H15         -3.4260    -1.6870    -9.2650 ha         1 RX3       0.112500
     59 H13         -3.5740    -0.2180    -7.2930 ha         1 RX3       0.132000
     60 H18         -3.3900     0.7080     0.1300 hc         1 RX3       0.081700
     61 H17         -1.4960    -0.5270    -1.8010 hc         1 RX3       0.065700
     62 H211        -0.9340    -2.2470     0.3270 hc         1 RX3       0.021700
     63 H212        -2.3000    -3.1910     0.9200 hc         1 RX3       0.021700
     64 H221        -2.2070    -2.7970    -1.7270 hc         1 RX3       0.031700
     65 H222        -3.7180    -2.3920    -0.9140 hc         1 RX3       0.031700
     66 HN2         -1.9340     1.9620    -1.4940 hn         1 RX3       0.347500
     67 H23          0.6700     2.6950    -0.3460 h1         1 RX3       0.050700
     68 H251        -1.0300     3.9510    -2.5320 hc         1 RX3       0.055700
     69 H252         0.5370     4.5310    -2.0230 hc         1 RX3       0.055700
     70 H27         -1.0390     1.3590    -3.7200 h4         1 RX3       0.201000
     71 HN3          0.7380     0.1400    -5.0190 hn         1 RX3       0.297700
     72 H30          3.0180     4.1950    -2.3360 ha         1 RX3       0.143000
     73 H31          3.5070     0.3380    -5.4820 ha         1 RX3       0.116000
     74 H32          5.2200     3.6010    -3.2710 ha         1 RX3       0.104000
     75 H33          5.4680     1.7000    -4.8200 ha         1 RX3       0.097000
     76 H201        -3.5700    -1.1750     1.4190 hc         1 RX3       0.040700
     77 O3          -3.3080     1.4170    -2.8800 o          1 RX3      -0.808500
     78 H202        -1.9660    -0.7540     2.0030 hc         1 RX3       0.040700
@<TRIPOS>BOND
     1     1     2 2   
     2     1     3 1   
     3     1    14 1   
     4     3     4 1   
     5     4     5 1   
     6     4    44 1   
     7     4    45 1   
     8     5     6 ar  
     9     5    10 ar  
    10     6     7 ar  
    11     6    46 1   
    12     7     8 ar  
    13     7    47 1   
    14     8     9 ar  
    15     8    48 1   
    16     9    10 ar  
    17     9    49 1   
    18    10    50 1   
    19    11    12 1   
    20    11    13 1   
    21    11    28 1   
    22    11    77 1   
    23    13    14 1   
    24    13    15 1   
    25    13    51 1   
    26    14    52 1   
    27    15    16 1   
    28    15    53 1   
    29    15    54 1   
    30    16    17 ar  
    31    16    21 ar  
    32    17    18 ar  
    33    17    55 1   
    34    18    19 ar  
    35    18    56 1   
    36    19    20 ar  
    37    19    57 1   
    38    20    21 ar  
    39    20    58 1   
    40    21    59 1   
    41    22    23 2   
    42    22    24 1   
    43    22    29 1   
    44    24    25 1   
    45    24    28 1   
    46    24    60 1   
    47    25    26 1   
    48    25    76 1   
    49    25    78 1   
    50    26    27 1   
    51    26    62 1   
    52    26    63 1   
    53    27    28 1   
    54    27    64 1   
    55    27    65 1   
    56    28    61 1   
    57    29    30 1   
    58    29    66 1   
    59    30    31 1   
    60    30    33 1   
    61    30    67 1   
    62    31    32 1   
    63    31    43 1   
    64    33    34 1   
    65    33    68 1   
    66    33    69 1   
    67    34    35 2   
    68    34    36 1   
    69    35    37 1   
    70    35    70 1   
    71    36    38 ar  
    72    36    39 ar  
    73    37    38 1   
    74    37    71 1   
    75    38    40 ar  
    76    39    41 ar  
    77    39    72 1   
    78    40    42 ar  
    79    40    73 1   
    80    41    42 ar  
    81    41    74 1   
    82    42    75 1   
@<TRIPOS>SUBSTRUCTURE
     1 RX3         1 TEMP              0 ****  ****    0 ROOT
