@<TRIPOS>MOLECULE
RX3
   78    82     1     0     0
SMALL
No Charge or Current Charge


@<TRIPOS>ATOM
      1 C1          -1.5610    -2.0100    -5.1770 c          1 RX3       0.632100
      2 O2          -1.7070    -3.1920    -4.9040 o          1 RX3      -0.560000
      3 O1          -0.5110    -1.4720    -5.8540 os         1 RX3      -0.485100
      4 C2           0.4560    -2.3840    -6.4030 c3         1 RX3       0.230900
      5 C3           1.5670    -1.5930    -7.0900 ca         1 RX3      -0.091300
      6 C4           2.8990    -2.0520    -7.0220 ca         1 RX3      -0.092000
      7 C6           3.9320    -1.3330    -7.6470 ca         1 RX3      -0.115000
      8 C8           3.6420    -0.1520    -8.3510 ca         1 RX3      -0.111000
      9 C7           2.3170     0.3060    -8.4340 ca         1 RX3      -0.115000
     10 C5           1.2830    -0.4130    -7.8100 ca         1 RX3      -0.092000
     11 P1          -3.8380    -0.0230    -2.5990 p5         1 RX3       1.386000
     12 O4          -5.1980    -0.0960    -1.9780 o          1 RX3      -0.808500
     13 C9          -3.6950    -1.1550    -4.0810 c3         1 RX3      -0.212300
     14 N1          -2.4170    -0.9980    -4.8320 ns         1 RX3      -0.450900
     15 C10         -4.9160    -1.0580    -5.0320 c3         1 RX3      -0.044100
     16 C11         -4.8380    -2.0320    -6.2030 ca         1 RX3      -0.045300
     17 C12         -5.1330    -3.3960    -6.0100 ca         1 RX3      -0.107000
     18 C14         -5.0550    -4.2980    -7.0850 ca         1 RX3      -0.118000
     19 C16         -4.6800    -3.8420    -8.3600 ca         1 RX3      -0.136000
     20 C15         -4.3820    -2.4840    -8.5590 ca         1 RX3      -0.118000
     21 C13         -4.4610    -1.5810    -7.4840 ca         1 RX3      -0.107000
     22 C19         -0.9690     1.1050    -0.3250 c          1 RX3       0.607100
     23 O5           0.1470     0.5980    -0.2950 o          1 RX3      -0.670100
     24 C18         -2.3450     0.3760    -0.1600 c5         1 RX3      -0.115700
     25 C20         -2.3350    -0.5120     1.1310 c5         1 RX3      -0.058400
     26 C21         -2.0900    -1.9440     0.5880 c5         1 RX3      -0.075400
     27 C22         -3.0410    -1.9520    -0.6310 c5         1 RX3      -0.054400
     28 C17         -2.5870    -0.6460    -1.3450 c5         1 RX3      -0.419700
     29 N2          -1.1840     2.4580    -0.4810 ns         1 RX3      -0.466900
     30 C23         -0.1310     3.4810    -0.7060 c3         1 RX3      -0.021300
     31 C24         -0.4680     4.7860     0.0780 c          1 RX3       0.716000
     32 O6           0.3920     5.2620     0.8060 o          1 RX3      -0.736500
     33 C25          0.0710     3.7830    -2.2130 c3         1 RX3      -0.011200
     34 C26          0.5980     2.6180    -3.0110 cc         1 RX3      -0.107400
     35 C27         -0.1100     1.8100    -3.8960 cd         1 RX3      -0.161100
     36 C28          1.9420     2.1110    -3.0060 ca         1 RX3      -0.088800
     37 N3           0.7490     0.8160    -4.4280 na         1 RX3      -0.233700
     38 C29          1.9880     1.0440    -3.8590 ca         1 RX3      -0.061200
     39 C30          3.0750     2.5470    -2.3030 ca         1 RX3      -0.044000
     40 C31          3.1750     0.3300    -4.0710 ca         1 RX3      -0.143000
     41 C32          4.2850     1.8470    -2.4990 ca         1 RX3      -0.177000
     42 C33          4.3350     0.7420    -3.3800 ca         1 RX3      -0.123000
     43 OXT         -1.6060     5.2340     0.0070 o          1 RX3      -0.736500
     44 H21         -0.0150    -3.0500    -7.1370 h1         1 RX3       0.052200
     45 H22          0.8900    -3.0060    -5.6090 h1         1 RX3       0.052200
     46 H4           3.1350    -2.9640    -6.4780 ha         1 RX3       0.119500
     47 H6           4.9580    -1.6900    -7.5850 ha         1 RX3       0.107500
     48 H8           4.4420     0.4040    -8.8340 ha         1 RX3       0.104000
     49 H7           2.0910     1.2170    -8.9830 ha         1 RX3       0.107500
     50 H5           0.2600    -0.0500    -7.8870 ha         1 RX3       0.119500
     51 H9          -3.7030    -2.1490    -3.6180 h1         1 RX3       0.081700
     52 HN1         -2.1440    -0.0770    -5.1510 hn         1 RX3       0.327500
     53 H101        -5.8340    -1.2480    -4.4610 hc         1 RX3       0.069700
     54 H102        -5.0010    -0.0280    -5.4010 hc         1 RX3       0.069700
     55 H12         -5.4200    -3.7560    -5.0250 ha         1 RX3       0.114000
     56 H14         -5.2840    -5.3500    -6.9290 ha         1 RX3       0.094500
     57 H16         -4.6180    -4.5410    -9.1910 ha         1 RX3       0.091000
     58 H15         -4.0890    -2.1300    -9.5450 ha         1 RX3       0.094500
     59 H13         -4.2240    -0.5320    -7.6460 ha         1 RX3       0.114000
     60 H18         -3.1540     1.1140    -0.1050 hc         1 RX3       0.081700
     61 H17         -1.6660    -0.8220    -1.9110 hc         1 RX3       0.065700
     62 H211        -1.0450    -2.1000     0.2950 hc         1 RX3       0.021700
     63 H212        -2.3460    -2.7160     1.3220 hc         1 RX3       0.021700
     64 H221        -2.9100    -2.8410    -1.2590 hc         1 RX3       0.031700
     65 H222        -4.0910    -1.9220    -0.3170 hc         1 RX3       0.031700
     66 HN2         -2.1480     2.7660    -0.4900 hn         1 RX3       0.347500
     67 H23          0.8150     3.1010    -0.3010 h1         1 RX3       0.050700
     68 H251        -0.8790     4.1260    -2.6410 hc         1 RX3       0.055700
     69 H252         0.7680     4.6240    -2.3110 hc         1 RX3       0.055700
     70 H27         -1.1610     1.8720    -4.1670 h4         1 RX3       0.251000
     71 HN3          0.5020     0.0700    -5.0760 hn         1 RX3       0.348000
     72 H30          3.0230     3.3980    -1.6270 ha         1 RX3       0.125000
     73 H31          3.2050    -0.5190    -4.7470 ha         1 RX3       0.098000
     74 H32          5.1810     2.1600    -1.9700 ha         1 RX3       0.086000
     75 H33          5.2700     0.2070    -3.5260 ha         1 RX3       0.079000
     76 H201        -3.3010    -0.4550     1.6470 hc         1 RX3       0.040700
     77 O3          -3.4330     1.3700    -2.9660 o          1 RX3      -0.808500
     78 H202        -1.5730    -0.2040     1.8580 hc         1 RX3       0.040700
@<TRIPOS>BOND
     1     1     2 2   
     2     1     3 1   
     3     1    14 1   
     4     3     4 1   
     5     4     5 1   
     6     4    44 1   
     7     4    45 1   
     8     5     6 ar  
     9     5    10 ar  
    10     6     7 ar  
    11     6    46 1   
    12     7     8 ar  
    13     7    47 1   
    14     8     9 ar  
    15     8    48 1   
    16     9    10 ar  
    17     9    49 1   
    18    10    50 1   
    19    11    12 1   
    20    11    13 1   
    21    11    28 1   
    22    11    77 1   
    23    13    14 1   
    24    13    15 1   
    25    13    51 1   
    26    14    52 1   
    27    15    16 1   
    28    15    53 1   
    29    15    54 1   
    30    16    17 ar  
    31    16    21 ar  
    32    17    18 ar  
    33    17    55 1   
    34    18    19 ar  
    35    18    56 1   
    36    19    20 ar  
    37    19    57 1   
    38    20    21 ar  
    39    20    58 1   
    40    21    59 1   
    41    22    23 2   
    42    22    24 1   
    43    22    29 1   
    44    24    25 1   
    45    24    28 1   
    46    24    60 1   
    47    25    26 1   
    48    25    76 1   
    49    25    78 1   
    50    26    27 1   
    51    26    62 1   
    52    26    63 1   
    53    27    28 1   
    54    27    64 1   
    55    27    65 1   
    56    28    61 1   
    57    29    30 1   
    58    29    66 1   
    59    30    31 1   
    60    30    33 1   
    61    30    67 1   
    62    31    32 1   
    63    31    43 1   
    64    33    34 1   
    65    33    68 1   
    66    33    69 1   
    67    34    35 2   
    68    34    36 1   
    69    35    37 1   
    70    35    70 1   
    71    36    38 ar  
    72    36    39 ar  
    73    37    38 1   
    74    37    71 1   
    75    38    40 ar  
    76    39    41 ar  
    77    39    72 1   
    78    40    42 ar  
    79    40    73 1   
    80    41    42 ar  
    81    41    74 1   
    82    42    75 1   
@<TRIPOS>SUBSTRUCTURE
     1 RX3         1 TEMP              0 ****  ****    0 ROOT
