@<TRIPOS>MOLECULE
RX4
   63    63     1     0     0
SMALL
bcc


@<TRIPOS>ATOM
      1 CAX         -6.2130     0.1930     0.6760 c          1 RX4       0.669100
      2 CAA         -7.1620     0.8390     1.6590 c3         1 RX4      -0.175100
      3 OAE         -6.3370    -0.9780     0.3410 o          1 RX4      -0.668100
      4 CBB         -2.9610     0.1910     0.3190 c          1 RX4       0.685100
      5 OAI         -3.1360    -0.1110     1.4890 o          1 RX4      -0.647100
      6 CBF         -4.1410     0.5610    -0.5880 c3         1 RX4       0.052700
      7 CAR         -3.8150     1.5870    -1.6710 c3         1 RX4      -0.228400
      8 CAZ         -3.2810     2.9320    -1.1430 c          1 RX4       0.932600
      9 OAK         -2.7070     3.6640    -1.9670 o          1 RX4      -0.831300
     10 OAG         -3.5060     3.1930     0.0600 o          1 RX4      -0.831300
     11 NAU         -5.2500     1.0020     0.2120 ns         1 RX4      -0.520900
     12 CAP         -2.1220    -2.7530    -1.4240 ca         1 RX4      -0.124000
     13 CAN         -3.1650    -3.6680    -1.4020 ca         1 RX4      -0.132000
     14 CAM         -3.3030    -4.5440    -0.3340 ca         1 RX4      -0.149000
     15 CAO         -2.3890    -4.4960     0.7110 ca         1 RX4      -0.132000
     16 CAQ         -1.3510    -3.5740     0.6860 ca         1 RX4      -0.124000
     17 CBC         -1.2020    -2.6890    -0.3790 ca         1 RX4      -0.036300
     18 CAS         -0.1120    -1.6570    -0.3720 c3         1 RX4      -0.037100
     19 CBG         -0.5550    -0.3580     0.3210 c3         1 RX4      -0.063500
     20 P1           0.7030     1.0120     0.2220 p5         1 RX4       1.058400
     21 O4           0.2510     2.1260     1.1390 o          1 RX4      -0.791500
     22 O3           0.9250     1.2980    -1.2510 o          1 RX4      -0.791500
     23 CAT          2.2280     0.2180     0.8900 c3         1 RX4      -0.267600
     24 CBD          3.4350     1.1690     0.9210 c3         1 RX4      -0.084700
     25 CAB          3.3840     2.1590     2.0800 c3         1 RX4      -0.087100
     26 CBA          4.6980     0.3310     1.0160 c          1 RX4       0.670100
     27 OAH          4.9810    -0.3080     2.0220 o          1 RX4      -0.647100
     28 N            5.4660     0.3310    -0.0860 ns         1 RX4      -0.575900
     29 CA           6.6510    -0.4760    -0.2280 c3         1 RX4       0.038700
     30 CB           6.3240    -1.8990    -0.6910 c3         1 RX4      -0.109100
     31 C            7.5750     0.1920    -1.2420 c          1 RX4       0.658100
     32 O            7.1420     0.9390    -2.1070 o          1 RX4      -0.599100
     33 NAD          8.8630    -0.1450    -1.1290 nt         1 RX4      -0.682000
     34 HAA1        -7.0960     1.9250     1.6710 hc         1 RX4       0.041700
     35 HAA2        -8.1870     0.5500     1.4330 hc         1 RX4       0.041700
     36 HAA3        -6.9340     0.4770     2.6630 hc         1 RX4       0.041700
     37 HBF         -4.4370    -0.3760    -1.0700 h1         1 RX4       0.048700
     38 HAR1        -3.1310     1.1670    -2.4130 hc         1 RX4       0.025200
     39 HAR2        -4.7360     1.7820    -2.2300 hc         1 RX4       0.025200
     40 HAU         -5.1380     1.9320     0.5910 hn         1 RX4       0.359500
     41 HAM         -4.1140    -5.2600    -0.3160 ha         1 RX4       0.106000
     42 HAO         -2.4830    -5.1780     1.5470 ha         1 RX4       0.109500
     43 HAQ         -0.6440    -3.5430     1.5080 ha         1 RX4       0.126500
     44 HAS1         0.7660    -2.0510     0.1420 hc         1 RX4       0.040700
     45 HAS2         0.1970    -1.4260    -1.3950 hc         1 RX4       0.040700
     46 HBG         -0.7680    -0.5670     1.3700 h1         1 RX4       0.078700
     47 HAT1         2.0420    -0.1830     1.8910 hc         1 RX4       0.044700
     48 HAT2         2.4620    -0.6350     0.2470 hc         1 RX4       0.044700
     49 HBD          3.4550     1.7280    -0.0200 hc         1 RX4       0.066700
     50 HAB1         2.4880     2.7710     2.0100 hc         1 RX4       0.043700
     51 HAB2         3.3610     1.6360     3.0370 hc         1 RX4       0.043700
     52 HAB3         4.2530     2.8180     2.0760 hc         1 RX4       0.043700
     53 H            5.1710     0.8590    -0.8940 hn         1 RX4       0.346500
     54 HA           7.1550    -0.5260     0.7400 h1         1 RX4       0.068700
     55 HB1C         5.6390    -2.3680     0.0150 hc         1 RX4       0.044033
     56 HB2C         5.8500    -1.8860    -1.6730 hc         1 RX4       0.044033
     57 HB3C         7.2210    -2.5130    -0.7480 hc         1 RX4       0.044033
     58 HAD1         9.1950    -0.7430    -0.3930 hn         1 RX4       0.305000
     59 HAD2         9.5390     0.1830    -1.8010 hn         1 RX4       0.305000
     60 HAP         -2.0190    -2.0820    -2.2690 ha         1 RX4       0.126500
     61 NAW         -1.7650     0.1440    -0.2860 ns         1 RX4      -0.529900
     62 HAN         -3.8710    -3.6980    -2.2230 ha         1 RX4       0.109500
     63 HAW         -1.6750     0.4790    -1.2310 hn         1 RX4       0.331500
@<TRIPOS>BOND
     1     1     2 1   
     2     1     3 2   
     3     1    11 1   
     4     2    34 1   
     5     2    35 1   
     6     2    36 1   
     7     4     5 2   
     8     4     6 1   
     9     4    61 1   
    10     6     7 1   
    11     6    11 1   
    12     6    37 1   
    13     7     8 1   
    14     7    38 1   
    15     7    39 1   
    16     8     9 1   
    17     8    10 1   
    18    11    40 1   
    19    12    13 ar  
    20    12    17 ar  
    21    12    60 1   
    22    13    14 ar  
    23    13    62 1   
    24    14    15 ar  
    25    14    41 1   
    26    15    16 ar  
    27    15    42 1   
    28    16    17 ar  
    29    16    43 1   
    30    17    18 1   
    31    18    19 1   
    32    18    44 1   
    33    18    45 1   
    34    19    20 1   
    35    19    46 1   
    36    19    61 1   
    37    20    21 1   
    38    20    22 1   
    39    20    23 1   
    40    23    24 1   
    41    23    47 1   
    42    23    48 1   
    43    24    25 1   
    44    24    26 1   
    45    24    49 1   
    46    25    50 1   
    47    25    51 1   
    48    25    52 1   
    49    26    27 2   
    50    26    28 1   
    51    28    29 1   
    52    28    53 1   
    53    29    30 1   
    54    29    31 1   
    55    29    54 1   
    56    30    55 1   
    57    30    56 1   
    58    30    57 1   
    59    31    32 2   
    60    31    33 1   
    61    33    58 1   
    62    33    59 1   
    63    61    63 1   
@<TRIPOS>SUBSTRUCTURE
     1 RX4         1 TEMP              0 ****  ****    0 ROOT
