@<TRIPOS>MOLECULE
RX4
   63    63     1     0     0
SMALL
No Charge or Current Charge


@<TRIPOS>ATOM
      1 CAX         -6.6070    -0.1450     0.2710 c          1 RX4       0.602100
      2 CAA         -7.4700    -0.8430     1.3190 c3         1 RX4      -0.175100
      3 OAE         -7.0320     0.1510    -0.8380 o          1 RX4      -0.668100
      4 CBB         -2.8620     0.3660     0.3470 c          1 RX4       0.618100
      5 OAI         -2.6660    -0.2000     1.4190 o          1 RX4      -0.647100
      6 CBF         -4.2840     0.7870    -0.1410 c3         1 RX4       0.052700
      7 CAR         -4.4840     2.3310    -0.1750 c3         1 RX4      -0.228400
      8 CAZ         -4.5420     2.9200     1.2430 c          1 RX4       0.722000
      9 OAK         -3.4920     3.2550     1.7660 o          1 RX4      -0.726000
     10 OAG         -5.6310     3.0180     1.7880 o          1 RX4      -0.726000
     11 NAU         -5.3170     0.1080     0.6690 ns         1 RX4      -0.453900
     12 CAP         -2.3030    -2.3950    -1.8420 ca         1 RX4      -0.106000
     13 CAN         -3.2390    -3.4090    -1.5720 ca         1 RX4      -0.114000
     14 CAM         -3.0690    -4.2430    -0.4550 ca         1 RX4      -0.131000
     15 CAO         -1.9640    -4.0630     0.3930 ca         1 RX4      -0.114000
     16 CAQ         -1.0290    -3.0480     0.1250 ca         1 RX4      -0.106000
     17 CBC         -1.1930    -2.2080    -0.9940 ca         1 RX4      -0.036300
     18 CAS         -0.1850    -1.0970    -1.2730 c3         1 RX4      -0.037100
     19 CBG         -0.4210     0.1700    -0.4070 c3         1 RX4      -0.221300
     20 P1           0.9030     1.4800    -0.6540 p5         1 RX4       1.374000
     21 O4           0.4420     2.7990    -0.1190 o          1 RX4      -0.791500
     22 O3           1.3110     1.5530    -2.0920 o          1 RX4      -0.791500
     23 CAT          2.3160     0.8630     0.3630 c3         1 RX4      -0.425400
     24 CBD          3.7370     1.4400     0.0520 c3         1 RX4      -0.084700
     25 CAB          3.8560     2.9480     0.3830 c3         1 RX4      -0.087100
     26 CBA          4.8580     0.6390     0.7680 c          1 RX4       0.603100
     27 OAH          4.9650     0.5850     1.9870 o          1 RX4      -0.647100
     28 N            5.7380    -0.0090    -0.0700 ns         1 RX4      -0.508900
     29 CA           6.8760    -0.8480     0.3660 c3         1 RX4       0.038700
     30 CB           6.3880    -2.2270     0.8750 c3         1 RX4      -0.109100
     31 C            7.9340    -0.9740    -0.7740 c          1 RX4       0.591100
     32 O            7.7930    -0.4870    -1.8860 o          1 RX4      -0.599100
     33 NAD          9.0570    -1.6740    -0.4880 nt         1 RX4      -0.615000
     34 HAA1        -7.4670    -0.2490     2.2400 hc         1 RX4       0.041700
     35 HAA2        -8.4900    -1.0380     0.9680 hc         1 RX4       0.041700
     36 HAA3        -6.9710    -1.7660     1.6370 hc         1 RX4       0.041700
     37 HBF         -4.3710     0.4130    -1.1700 h1         1 RX4       0.048700
     38 HAR1        -3.6240     2.7360    -0.7230 hc         1 RX4       0.025200
     39 HAR2        -5.4380     2.4970    -0.6900 hc         1 RX4       0.025200
     40 HAU         -5.0580    -0.2060     1.5980 hn         1 RX4       0.359500
     41 HAM         -3.7940    -5.0270    -0.2460 ha         1 RX4       0.088000
     42 HAO         -1.8320    -4.7070     1.2590 ha         1 RX4       0.091500
     43 HAQ         -0.1790    -2.9090     0.7890 ha         1 RX4       0.108500
     44 HAS1         0.8300    -1.4750    -1.1000 hc         1 RX4       0.040700
     45 HAS2        -0.2240    -0.8190    -2.3330 hc         1 RX4       0.040700
     46 HBG         -0.2570    -0.1070     0.6410 h1         1 RX4       0.078700
     47 HAT1         2.0570     1.0410     1.4130 hc         1 RX4       0.044700
     48 HAT2         2.3370    -0.2230     0.2200 hc         1 RX4       0.044700
     49 HBD          3.9020     1.3330    -1.0270 hc         1 RX4       0.066700
     50 HAB1         3.1600     3.5430    -0.2200 hc         1 RX4       0.043700
     51 HAB2         3.6420     3.1340     1.4420 hc         1 RX4       0.043700
     52 HAB3         4.8710     3.3070     0.1710 hc         1 RX4       0.043700
     53 H            5.5930     0.1130    -1.0670 hn         1 RX4       0.346500
     54 HA           7.3800    -0.3360     1.1970 h1         1 RX4       0.068700
     55 HB1C         5.6600    -2.1090     1.6860 hc         1 RX4       0.044033
     56 HB2C         5.9090    -2.7900     0.0650 hc         1 RX4       0.044033
     57 HB3C         7.2230    -2.8230     1.2610 hc         1 RX4       0.044033
     58 HAD1         9.1820    -2.0800     0.4270 hn         1 RX4       0.305000
     59 HAD2         9.7650    -1.7810    -1.1990 hn         1 RX4       0.305000
     60 HAP         -2.4440    -1.7510    -2.7060 ha         1 RX4       0.108500
     61 NAW         -1.8350     0.6410    -0.5430 ns         1 RX4      -0.462900
     62 HAN         -4.0950    -3.5460    -2.2280 ha         1 RX4       0.091500
     63 HAW         -2.1020     1.1390    -1.3860 hn         1 RX4       0.331500
@<TRIPOS>BOND
     1     1     2 1   
     2     1     3 2   
     3     1    11 1   
     4     2    34 1   
     5     2    35 1   
     6     2    36 1   
     7     4     5 2   
     8     4     6 1   
     9     4    61 1   
    10     6     7 1   
    11     6    11 1   
    12     6    37 1   
    13     7     8 1   
    14     7    38 1   
    15     7    39 1   
    16     8     9 1   
    17     8    10 1   
    18    11    40 1   
    19    12    13 ar  
    20    12    17 ar  
    21    12    60 1   
    22    13    14 ar  
    23    13    62 1   
    24    14    15 ar  
    25    14    41 1   
    26    15    16 ar  
    27    15    42 1   
    28    16    17 ar  
    29    16    43 1   
    30    17    18 1   
    31    18    19 1   
    32    18    44 1   
    33    18    45 1   
    34    19    20 1   
    35    19    46 1   
    36    19    61 1   
    37    20    21 1   
    38    20    22 1   
    39    20    23 1   
    40    23    24 1   
    41    23    47 1   
    42    23    48 1   
    43    24    25 1   
    44    24    26 1   
    45    24    49 1   
    46    25    50 1   
    47    25    51 1   
    48    25    52 1   
    49    26    27 2   
    50    26    28 1   
    51    28    29 1   
    52    28    53 1   
    53    29    30 1   
    54    29    31 1   
    55    29    54 1   
    56    30    55 1   
    57    30    56 1   
    58    30    57 1   
    59    31    32 2   
    60    31    33 1   
    61    33    58 1   
    62    33    59 1   
    63    61    63 1   
@<TRIPOS>SUBSTRUCTURE
     1 RX4         1 TEMP              0 ****  ****    0 ROOT
