@<TRIPOS>MOLECULE
RX5
   77    79     1     0     0
SMALL
abcg2


@<TRIPOS>ATOM
      1 C1          25.2080    -8.3880    -6.8120 c3         1 RX5       0.141100
      2 N1          25.9340    -7.3540    -7.5520 n7         1 RX5      -0.863400
      3 O1          25.2470   -10.6170   -11.2300 o          1 RX5      -0.658100
      4 C2          26.4260    -7.7450    -8.8820 c3         1 RX5       0.155500
      5 O2          29.4870    -7.0820   -13.3260 os         1 RX5      -0.480000
      6 C3          25.2940    -8.1730    -9.8340 c3         1 RX5       0.081000
      7 N3          26.2370    -9.6930   -13.0680 n          1 RX5      -0.423800
      8 O3          26.6860    -3.9100   -13.4050 o          1 RX5      -0.532000
      9 C4          25.7320    -9.6220   -11.7920 c          1 RX5       0.658100
     10 N4          28.0590    -5.0900   -12.0040 ns         1 RX5      -0.473900
     11 O4          25.8550    -5.3730   -11.8810 os         1 RX5      -0.486100
     12 C5          27.1310    -8.7130   -13.6650 c6         1 RX5       0.106000
     13 C6          28.5770    -9.2280   -13.7190 c6         1 RX5      -0.094700
     14 C7          28.6210   -10.5490   -14.4870 c6         1 RX5      -0.067400
     15 C8          27.6430   -11.5540   -13.8740 c6         1 RX5      -0.101400
     16 C9          26.2350   -10.9700   -13.7760 c6         1 RX5       0.103000
     17 C10         29.4700    -8.1280   -14.3010 c3         1 RX5       0.228600
     18 C11         27.5220    -8.8250    -8.7800 c3         1 RX5      -0.067400
     19 C12         28.7780    -8.5350    -9.6070 c6         1 RX5      -0.095700
     20 C13         29.6580    -9.7810    -9.6660 c6         1 RX5       0.155600
     21 O14         30.8680    -9.5730   -10.3940 os         1 RX5      -0.466000
     22 C15         31.6660    -8.5300    -9.8310 c6         1 RX5       0.150600
     23 C16         30.9120    -7.2090    -9.8100 c6         1 RX5      -0.115400
     24 C17         29.5940    -7.3640    -9.0500 c6         1 RX5      -0.074400
     25 C19         29.3080    -4.8030   -12.6970 c3         1 RX5       0.108000
     26 C20         26.8630    -4.7250   -12.5170 c          1 RX5       0.619100
     27 C21         30.8730    -8.5760   -14.6340 ca         1 RX5      -0.109300
     28 C22         31.7120    -9.0420   -13.6210 ca         1 RX5      -0.075000
     29 C23         32.9940    -9.4540   -13.9420 ca         1 RX5       0.118000
     30 C24         33.4730    -9.4210   -15.2470 ca         1 RX5      -0.096000
     31 C25         32.6300    -8.9590   -16.2490 ca         1 RX5      -0.108000
     32 C26         31.3390    -8.5370   -15.9440 ca         1 RX5      -0.102000
     33 C27         24.5180    -5.0490   -12.3030 c3         1 RX5       0.168900
     34 CL2         34.0470   -10.0450   -12.6670 cl         1 RX5      -0.213000
     35 H1          24.9220    -7.9890    -5.8380 h1         1 RX5       0.032700
     36 H1A         24.2990    -8.7510    -7.3080 h1         1 RX5       0.032700
     37 H1B         25.8590    -9.2460    -6.6410 h1         1 RX5       0.032700
     38 HN1         25.3340    -6.5420    -7.6560 hn         1 RX5       0.408000
     39 H2          26.8720    -6.8400    -9.3010 h1         1 RX5       0.053700
     40 HN2         26.0270    -7.5830   -11.7040 hn         1 RX5       0.319500
     41 H3          24.8330    -9.0940    -9.4870 h1         1 RX5       0.055200
     42 H3A         24.5270    -7.3920    -9.8480 h1         1 RX5       0.055200
     43 HN4         28.0500    -5.8990   -11.4000 hn         1 RX5       0.325500
     44 H5          26.7880    -8.5130   -14.6870 h1         1 RX5       0.047700
     45 H5A         27.1070    -7.7710   -13.1330 h1         1 RX5       0.047700
     46 H6          28.9110    -9.4090   -12.6920 hc         1 RX5       0.081700
     47 H7          28.3530   -10.3670   -15.5350 hc         1 RX5       0.046700
     48 H7A         29.6330   -10.9580   -14.4860 hc         1 RX5       0.046700
     49 H8          27.6130   -12.4690   -14.4700 hc         1 RX5       0.054200
     50 H8A         27.9830   -11.8290   -12.8710 hc         1 RX5       0.054200
     51 H9          25.5590   -11.6480   -13.2640 h1         1 RX5       0.062200
     52 H9A         25.8440   -10.7910   -14.7840 h1         1 RX5       0.062200
     53 H10         29.0080    -7.7520   -15.2210 h1         1 RX5       0.039700
     54 H11         27.8220    -8.9200    -7.7330 hc         1 RX5       0.055700
     55 H11A        27.1130    -9.7940    -9.0780 hc         1 RX5       0.055700
     56 H12         28.4820    -8.2970   -10.6330 hc         1 RX5       0.054700
     57 H13         29.9010   -10.1090    -8.6440 h1         1 RX5       0.046700
     58 H13A        29.1370   -10.5950   -10.1710 h1         1 RX5       0.046700
     59 H15         31.9640    -8.8130    -8.8120 h1         1 RX5       0.047200
     60 H15A        32.5630    -8.4710   -10.4470 h1         1 RX5       0.047200
     61 H16         31.5390    -6.4400    -9.3520 hc         1 RX5       0.050200
     62 H16A        30.7120    -6.9020   -10.8390 hc         1 RX5       0.050200
     63 H17         29.0180    -6.4370    -9.0970 hc         1 RX5       0.044700
     64 H17A        29.8050    -7.5540    -7.9910 hc         1 RX5       0.044700
     65 H18         30.5630    -5.5690   -14.2720 h1         1 RX5       0.041700
     66 H18A        28.8250    -5.6300   -14.6330 h1         1 RX5       0.041700
     67 H19         29.2750    -3.7840   -13.0790 h1         1 RX5       0.074200
     68 H19A        30.1110    -4.8640   -11.9630 h1         1 RX5       0.074200
     69 H22         31.3610    -9.0960   -12.5990 ha         1 RX5       0.160000
     70 H24         34.4790    -9.7480   -15.4700 ha         1 RX5       0.130000
     71 H25         32.9860    -8.9240   -17.2710 ha         1 RX5       0.119000
     72 H26         30.6890    -8.1750   -16.7310 ha         1 RX5       0.113000
     73 H27         23.8680    -5.6730   -11.6970 h1         1 RX5       0.052033
     74 H27A        24.3090    -3.9960   -12.1230 h1         1 RX5       0.052033
     75 H27B        24.3880    -5.2780   -13.3600 h1         1 RX5       0.052033
     76 N2          25.7670    -8.4040   -11.1830 ns         1 RX5      -0.523900
     77 C18         29.5730    -5.7660   -13.8440 c3         1 RX5       0.123600
@<TRIPOS>BOND
     1     1     2 1   
     2     1    35 1   
     3     1    36 1   
     4     1    37 1   
     5     2     4 1   
     6     2    38 1   
     7     3     9 2   
     8     4     6 1   
     9     4    18 1   
    10     4    39 1   
    11     5    17 1   
    12     5    77 1   
    13     6    41 1   
    14     6    42 1   
    15     6    76 1   
    16     7     9 1   
    17     7    12 1   
    18     7    16 1   
    19     8    26 2   
    20     9    76 1   
    21    10    25 1   
    22    10    26 1   
    23    10    43 1   
    24    11    26 1   
    25    11    33 1   
    26    12    13 1   
    27    12    44 1   
    28    12    45 1   
    29    13    14 1   
    30    13    17 1   
    31    13    46 1   
    32    14    15 1   
    33    14    47 1   
    34    14    48 1   
    35    15    16 1   
    36    15    49 1   
    37    15    50 1   
    38    16    51 1   
    39    16    52 1   
    40    17    27 1   
    41    17    53 1   
    42    18    19 1   
    43    18    54 1   
    44    18    55 1   
    45    19    20 1   
    46    19    24 1   
    47    19    56 1   
    48    20    21 1   
    49    20    57 1   
    50    20    58 1   
    51    21    22 1   
    52    22    23 1   
    53    22    59 1   
    54    22    60 1   
    55    23    24 1   
    56    23    61 1   
    57    23    62 1   
    58    24    63 1   
    59    24    64 1   
    60    25    67 1   
    61    25    68 1   
    62    25    77 1   
    63    27    28 ar  
    64    27    32 ar  
    65    28    29 ar  
    66    28    69 1   
    67    29    30 ar  
    68    29    34 1   
    69    30    31 ar  
    70    30    70 1   
    71    31    32 ar  
    72    31    71 1   
    73    32    72 1   
    74    33    73 1   
    75    33    74 1   
    76    33    75 1   
    77    40    76 1   
    78    65    77 1   
    79    66    77 1   
@<TRIPOS>SUBSTRUCTURE
     1 RX5         1 TEMP              0 ****  ****    0 ROOT
