@<TRIPOS>MOLECULE
RX5
   77    79     1     0     0
SMALL
No Charge or Current Charge


@<TRIPOS>ATOM
      1 C1          24.9010    -8.4130    -6.6460 c3         1 RX5       0.141100
      2 N1          25.6530    -7.3560    -7.3630 n7         1 RX5      -0.863400
      3 O1          25.1240   -10.5940   -11.0490 o          1 RX5      -0.658100
      4 C2          26.2640    -7.7050    -8.6760 c3         1 RX5       0.155500
      5 O2          29.4800    -6.9720   -13.4890 os         1 RX5      -0.480000
      6 C3          25.1640    -8.0500    -9.7280 c3         1 RX5       0.081000
      7 N3          26.3800    -9.8180   -12.8160 n          1 RX5      -0.423800
      8 O3          26.8500    -4.3750   -13.9000 o          1 RX5      -0.532000
      9 C4          25.6940    -9.6620   -11.5950 c          1 RX5       0.658100
     10 N4          28.3060    -4.8210   -12.1790 ns         1 RX5      -0.473900
     11 O4          26.1410    -5.1730   -11.8630 os         1 RX5      -0.486100
     12 C5          27.1720    -8.7460   -13.4830 c6         1 RX5       0.106000
     13 C6          28.6320    -9.1990   -13.7580 c6         1 RX5      -0.094700
     14 C7          28.6330   -10.5110   -14.5880 c6         1 RX5      -0.067400
     15 C8          27.8050   -11.6010   -13.8680 c6         1 RX5      -0.101400
     16 C9          26.3720   -11.1060   -13.5630 c6         1 RX5       0.103000
     17 C10         29.4470    -8.0550   -14.4290 c3         1 RX5       0.228600
     18 C11         27.3570    -8.8070    -8.4990 c3         1 RX5      -0.067400
     19 C12         28.5940    -8.7360    -9.4570 c6         1 RX5      -0.095700
     20 C13         29.4480   -10.0300    -9.3470 c6         1 RX5       0.155600
     21 O14         30.6080    -9.9490   -10.2050 os         1 RX5      -0.466000
     22 C15         31.5060    -8.8720    -9.8660 c6         1 RX5       0.150600
     23 C16         30.7780    -7.5190   -10.0270 c6         1 RX5      -0.115400
     24 C17         29.4870    -7.4910    -9.1730 c6         1 RX5      -0.074400
     25 C19         29.5820    -4.6410   -12.8900 c3         1 RX5       0.108000
     26 C20         27.0740    -4.7510   -12.7610 c          1 RX5       0.619100
     27 C21         30.8870    -8.4180   -14.7980 ca         1 RX5      -0.109300
     28 C22         31.7800    -8.8980   -13.8170 ca         1 RX5      -0.075000
     29 C23         33.1010    -9.2250   -14.1590 ca         1 RX5       0.118000
     30 C24         33.5460    -9.0750   -15.4820 ca         1 RX5      -0.096000
     31 C25         32.6640    -8.5960   -16.4660 ca         1 RX5      -0.108000
     32 C26         31.3400    -8.2670   -16.1240 ca         1 RX5      -0.102000
     33 C27         24.7630    -5.1690   -12.2830 c3         1 RX5       0.168900
     34 Cl2         34.2030    -9.8200   -12.9230 cl         1 RX5      -0.213000
     35 H1          24.5620    -8.0430    -5.6690 h1         1 RX5       0.032700
     36 H1A         24.0120    -8.7260    -7.2100 h1         1 RX5       0.032700
     37 H1B         25.5260    -9.2990    -6.4680 h1         1 RX5       0.032700
     38 HN1         25.0260    -6.5520    -7.4980 hn         1 RX5       0.408000
     39 H2          26.7700    -6.8030    -9.0470 h1         1 RX5       0.053700
     40 HN2         26.1660    -7.6780   -11.5800 hn         1 RX5       0.319500
     41 H3          24.5530    -8.8830    -9.3570 h1         1 RX5       0.055200
     42 H3A         24.4980    -7.1860    -9.8440 h1         1 RX5       0.055200
     43 HN4         28.3220    -5.1670   -11.2300 hn         1 RX5       0.325500
     44 H5          26.6840    -8.4910   -14.4350 h1         1 RX5       0.047700
     45 H5A         27.1920    -7.8290   -12.8830 h1         1 RX5       0.047700
     46 H6          29.1120    -9.4010   -12.7910 hc         1 RX5       0.081700
     47 H7          28.2170   -10.3250   -15.5880 hc         1 RX5       0.046700
     48 H7A         29.6600   -10.8740   -14.7360 hc         1 RX5       0.046700
     49 H8          27.7630   -12.5100   -14.4830 hc         1 RX5       0.054200
     50 H8A         28.3010   -11.8800   -12.9280 hc         1 RX5       0.054200
     51 H9          25.8360   -11.8840   -13.0020 h1         1 RX5       0.062200
     52 H9A         25.8290   -10.9600   -14.5080 h1         1 RX5       0.062200
     53 H10         28.9070    -7.7550   -15.3380 h1         1 RX5       0.039700
     54 H11         27.7310    -8.7700    -7.4680 hc         1 RX5       0.055700
     55 H11A        26.8700    -9.7850    -8.5940 hc         1 RX5       0.055700
     56 H12         28.2230    -8.6720   -10.4860 hc         1 RX5       0.054700
     57 H13         29.7760   -10.1860    -8.3090 h1         1 RX5       0.046700
     58 H13A        28.8470   -10.9010    -9.6480 h1         1 RX5       0.046700
     59 H15         31.8560    -9.0000    -8.8310 h1         1 RX5       0.047200
     60 H15A        32.3820    -8.9110   -10.5300 h1         1 RX5       0.047200
     61 H16         31.4440    -6.6970    -9.7330 hc         1 RX5       0.050200
     62 H16A        30.5300    -7.3600   -11.0840 hc         1 RX5       0.050200
     63 H17         28.9390    -6.5620    -9.3770 hc         1 RX5       0.044700
     64 H17A        29.7600    -7.4650    -8.1080 hc         1 RX5       0.044700
     65 H18         30.8350    -5.6290   -14.3760 h1         1 RX5       0.041700
     66 H18A        29.1340    -5.4310   -14.8640 h1         1 RX5       0.041700
     67 H19         29.6210    -3.6280   -13.3100 h1         1 RX5       0.074200
     68 H19A        30.4000    -4.7370   -12.1640 h1         1 RX5       0.074200
     69 H22         31.4500    -9.0160   -12.7900 ha         1 RX5       0.160000
     70 H24         34.5700    -9.3290   -15.7430 ha         1 RX5       0.130000
     71 H25         33.0060    -8.4780   -17.4920 ha         1 RX5       0.119000
     72 H26         30.6660    -7.8950   -16.8930 ha         1 RX5       0.113000
     73 H27         24.1130    -5.5120   -11.4690 h1         1 RX5       0.052033
     74 H27A        24.4440    -4.1580   -12.5670 h1         1 RX5       0.052033
     75 H27B        24.6140    -5.8350   -13.1420 h1         1 RX5       0.052033
     76 N2          25.6930    -8.3990   -11.0520 ns         1 RX5      -0.523900
     77 C18         29.7960    -5.6740   -14.0230 c3         1 RX5       0.123600
@<TRIPOS>BOND
     1     1     2 1   
     2     1    35 1   
     3     1    36 1   
     4     1    37 1   
     5     2     4 1   
     6     2    38 1   
     7     3     9 2   
     8     4     6 1   
     9     4    18 1   
    10     4    39 1   
    11     5    17 1   
    12     5    77 1   
    13     6    41 1   
    14     6    42 1   
    15     6    76 1   
    16     7     9 1   
    17     7    12 1   
    18     7    16 1   
    19     8    26 2   
    20     9    76 1   
    21    10    25 1   
    22    10    26 1   
    23    10    43 1   
    24    11    26 1   
    25    11    33 1   
    26    12    13 1   
    27    12    44 1   
    28    12    45 1   
    29    13    14 1   
    30    13    17 1   
    31    13    46 1   
    32    14    15 1   
    33    14    47 1   
    34    14    48 1   
    35    15    16 1   
    36    15    49 1   
    37    15    50 1   
    38    16    51 1   
    39    16    52 1   
    40    17    27 1   
    41    17    53 1   
    42    18    19 1   
    43    18    54 1   
    44    18    55 1   
    45    19    20 1   
    46    19    24 1   
    47    19    56 1   
    48    20    21 1   
    49    20    57 1   
    50    20    58 1   
    51    21    22 1   
    52    22    23 1   
    53    22    59 1   
    54    22    60 1   
    55    23    24 1   
    56    23    61 1   
    57    23    62 1   
    58    24    63 1   
    59    24    64 1   
    60    25    67 1   
    61    25    68 1   
    62    25    77 1   
    63    27    28 ar  
    64    27    32 ar  
    65    28    29 ar  
    66    28    69 1   
    67    29    30 ar  
    68    29    34 1   
    69    30    31 ar  
    70    30    70 1   
    71    31    32 ar  
    72    31    71 1   
    73    32    72 1   
    74    33    73 1   
    75    33    74 1   
    76    33    75 1   
    77    40    76 1   
    78    65    77 1   
    79    66    77 1   
@<TRIPOS>SUBSTRUCTURE
     1 RX5         1 TEMP              0 ****  ****    0 ROOT
