@<TRIPOS>MOLECULE
RX6
   77    79     1     0     0
SMALL
abcg2


@<TRIPOS>ATOM
      1 C1          29.5340    -8.1750   -14.3630 c3         1 RX6       0.228600
      2 N1          28.5190    -4.9010   -12.1120 ns         1 RX6      -0.481900
      3 O1          30.8790    -9.7380   -10.2450 os         1 RX6      -0.460000
      4 C2          25.1280    -4.0350   -12.6910 c3         1 RX6       0.169900
      5 O2          26.3090    -4.6580   -12.1590 os         1 RX6      -0.472100
      6 C3          30.9050    -8.7180   -14.6950 ca         1 RX6      -0.114300
      7 O3          29.6100    -7.1590   -13.3640 os         1 RX6      -0.481000
      8 C4          31.7280    -9.1990   -13.6760 ca         1 RX6      -0.076000
      9 C5          31.3500    -8.7590   -16.0130 ca         1 RX6      -0.101000
     10 C6          32.9720    -9.7140   -14.0010 ca         1 RX6       0.119000
     11 C7          32.6030    -9.2820   -16.3210 ca         1 RX6      -0.107000
     12 C8          33.4280    -9.7660   -15.3140 ca         1 RX6      -0.096000
     13 C9          27.4820    -4.2890   -12.7230 c          1 RX6       0.622100
     14 CL28        34.0070   -10.3310   -12.7240 cl         1 RX6      -0.214000
     15 C32         26.6760    -8.6140    -9.4910 c3         1 RX6       0.087700
     16 C33         25.3620    -8.1610    -8.8200 c3         1 RX6       0.142800
     17 C34         27.8580    -7.7320    -9.0840 c3         1 RX6      -0.090400
     18 N35         25.3290    -8.1560    -7.3620 n7         1 RX6      -0.863400
     19 O35         27.5710    -3.4920   -13.6430 o          1 RX6      -0.538000
     20 C36         29.1850    -8.0250    -9.7880 c6         1 RX6      -0.101700
     21 C37         30.2900    -7.0950    -9.2760 c6         1 RX6      -0.074400
     22 C38         31.6400    -7.4500    -9.8960 c6         1 RX6      -0.111400
     23 C39         31.9280    -8.9310    -9.7060 c6         1 RX6       0.148600
     24 C40         29.6220    -9.4790    -9.6210 c6         1 RX6       0.155600
     25 N42         26.5210    -8.6070   -10.9370 ns         1 RX6      -0.521900
     26 O44         25.8730   -10.7750   -11.1080 o          1 RX6      -0.649100
     27 N45         26.2650    -9.5920   -13.0330 n          1 RX6      -0.392800
     28 C46         27.4720   -11.4830   -14.0650 c6         1 RX6      -0.108400
     29 C47         28.4960   -10.5060   -14.6510 c6         1 RX6      -0.067400
     30 C48         28.5750    -9.2290   -13.8100 c6         1 RX6      -0.098700
     31 C49         27.1650    -8.6360   -13.6760 c6         1 RX6       0.088000
     32 C50         26.1170   -10.8130   -13.8290 c6         1 RX6       0.089000
     33 C51         25.5880    -9.4530    -6.7430 c3         1 RX6       0.144100
     34 CT2         30.0040    -5.8810   -13.8340 c3         1 RX6       0.123600
     35 CT3         29.8570    -4.9020   -12.6820 c3         1 RX6       0.113000
     36 H1          29.1040    -7.7470   -15.2780 h1         1 RX6       0.040700
     37 HN1         28.2880    -5.6420   -11.4710 hn         1 RX6       0.321500
     38 H2          24.3000    -4.4650   -12.1340 h1         1 RX6       0.051033
     39 H2A         25.1630    -2.9570   -12.5400 h1         1 RX6       0.051033
     40 H2B         25.0240    -4.2550   -13.7530 h1         1 RX6       0.051033
     41 H4          31.3980    -9.1770   -12.6460 ha         1 RX6       0.154000
     42 H5          30.7120    -8.3810   -16.8020 ha         1 RX6       0.115000
     43 H7          32.9430    -9.3110   -17.3480 ha         1 RX6       0.120000
     44 H8          34.4030   -10.1740   -15.5390 ha         1 RX6       0.131000
     45 H32         26.8730    -9.6470    -9.2110 h1         1 RX6       0.079700
     46 H33         25.1360    -7.1490    -9.1690 h1         1 RX6       0.062200
     47 H33A        24.5630    -8.8160    -9.1800 h1         1 RX6       0.062200
     48 H34         27.5940    -6.6840    -9.2660 hc         1 RX6       0.044700
     49 H34A        27.9990    -7.8300    -8.0040 hc         1 RX6       0.044700
     50 HN35        25.9800    -7.4680    -7.0030 hn         1 RX6       0.404000
     51 H36         29.0670    -7.8510   -10.8610 hc         1 RX6       0.064700
     52 H37         30.0270    -6.0550    -9.4890 hc         1 RX6       0.040200
     53 H37A        30.3560    -7.1890    -8.1860 hc         1 RX6       0.040200
     54 H38         31.6320    -7.2240   -10.9660 hc         1 RX6       0.051700
     55 H38A        32.4440    -6.8640    -9.4430 hc         1 RX6       0.051700
     56 H39         32.0450    -9.1600    -8.6370 h1         1 RX6       0.048200
     57 H39A        32.8370    -9.2330   -10.2250 h1         1 RX6       0.048200
     58 H40         28.9140   -10.1620   -10.0910 h1         1 RX6       0.050200
     59 H40A        29.6860    -9.7290    -8.5520 h1         1 RX6       0.050200
     60 HN42        26.6950    -7.7390   -11.4110 hn         1 RX6       0.314500
     61 H46         27.3420   -12.3400   -14.7300 hc         1 RX6       0.056200
     62 H46A        27.8420   -11.8670   -13.1100 hc         1 RX6       0.056200
     63 H47         29.4740   -10.9850   -14.7100 hc         1 RX6       0.046700
     64 H47A        28.2070   -10.2390   -15.6740 hc         1 RX6       0.046700
     65 H48         28.9290    -9.4880   -12.8070 hc         1 RX6       0.077700
     66 H49         26.7670    -8.4280   -14.6730 h1         1 RX6       0.055200
     67 H49A        27.1920    -7.6870   -13.1520 h1         1 RX6       0.055200
     68 H50         25.4330   -11.4830   -13.3180 h1         1 RX6       0.065200
     69 H50A        25.6710   -10.5240   -14.7850 h1         1 RX6       0.065200
     70 H51         25.4880    -9.3630    -5.6600 h1         1 RX6       0.032700
     71 H51A        24.8450   -10.1730    -7.0930 h1         1 RX6       0.032700
     72 H51B        26.5820    -9.8680    -6.9570 h1         1 RX6       0.032700
     73 HT2         31.0440    -5.8890   -14.1820 h1         1 RX6       0.043700
     74 HT2A        29.3650    -5.5810   -14.6730 h1         1 RX6       0.043700
     75 HT3         30.0960    -3.8980   -13.0330 h1         1 RX6       0.071700
     76 HT3A        30.5510    -5.1560   -11.8830 h1         1 RX6       0.071700
     77 C43         26.2100    -9.7170   -11.6580 c          1 RX6       0.640100
@<TRIPOS>BOND
     1     1     6 1   
     2     1     7 1   
     3     1    30 1   
     4     1    36 1   
     5     2    13 1   
     6     2    35 1   
     7     2    37 1   
     8     3    23 1   
     9     3    24 1   
    10     4     5 1   
    11     4    38 1   
    12     4    39 1   
    13     4    40 1   
    14     5    13 1   
    15     6     8 ar  
    16     6     9 ar  
    17     7    34 1   
    18     8    10 ar  
    19     8    41 1   
    20     9    11 ar  
    21     9    42 1   
    22    10    12 ar  
    23    10    14 1   
    24    11    12 ar  
    25    11    43 1   
    26    12    44 1   
    27    13    19 2   
    28    15    16 1   
    29    15    17 1   
    30    15    25 1   
    31    15    45 1   
    32    16    18 1   
    33    16    46 1   
    34    16    47 1   
    35    17    20 1   
    36    17    48 1   
    37    17    49 1   
    38    18    33 1   
    39    18    50 1   
    40    20    21 1   
    41    20    24 1   
    42    20    51 1   
    43    21    22 1   
    44    21    52 1   
    45    21    53 1   
    46    22    23 1   
    47    22    54 1   
    48    22    55 1   
    49    23    56 1   
    50    23    57 1   
    51    24    58 1   
    52    24    59 1   
    53    25    60 1   
    54    25    77 1   
    55    26    77 2   
    56    27    31 1   
    57    27    32 1   
    58    27    77 1   
    59    28    29 1   
    60    28    32 1   
    61    28    61 1   
    62    28    62 1   
    63    29    30 1   
    64    29    63 1   
    65    29    64 1   
    66    30    31 1   
    67    30    65 1   
    68    31    66 1   
    69    31    67 1   
    70    32    68 1   
    71    32    69 1   
    72    33    70 1   
    73    33    71 1   
    74    33    72 1   
    75    34    35 1   
    76    34    73 1   
    77    34    74 1   
    78    35    75 1   
    79    35    76 1   
@<TRIPOS>SUBSTRUCTURE
     1 RX6         1 TEMP              0 ****  ****    0 ROOT
