@<TRIPOS>MOLECULE
RX6
   77    79     1     0     0
SMALL
No Charge or Current Charge


@<TRIPOS>ATOM
      1 C1          29.5310    -8.1680   -14.5220 c3         1 RX6       0.228600
      2 N1          28.9240    -4.8290   -12.0630 ns         1 RX6      -0.481900
      3 O1          30.7570    -9.7190   -10.2100 os         1 RX6      -0.460000
      4 C2          25.3730    -4.8470   -11.8440 c3         1 RX6       0.169900
      5 O2          26.7770    -4.9370   -11.5430 os         1 RX6      -0.472100
      6 C3          30.9430    -8.6620   -14.8410 ca         1 RX6      -0.114300
      7 O3          29.6320    -7.1080   -13.5540 os         1 RX6      -0.481000
      8 C4          31.7910    -9.1160   -13.8090 ca         1 RX6      -0.076000
      9 C5          31.4140    -8.6630   -16.1690 ca         1 RX6      -0.101000
     10 C6          33.0870    -9.5660   -14.1030 ca         1 RX6       0.119000
     11 C7          32.7130    -9.1150   -16.4620 ca         1 RX6      -0.107000
     12 C8          33.5510    -9.5670   -15.4280 ca         1 RX6      -0.096000
     13 C9          27.6580    -4.6520   -12.5400 c          1 RX6       0.622100
     14 Cl28        34.1360   -10.1270   -12.8070 cl         1 RX6      -0.214000
     15 C32         26.5060    -8.4600    -9.4890 c3         1 RX6       0.087700
     16 C33         25.1530    -7.9340    -8.9260 c3         1 RX6       0.142800
     17 C34         27.7330    -7.5920    -9.0870 c3         1 RX6      -0.090400
     18 N35         25.1190    -7.8490    -7.4420 n7         1 RX6      -0.863400
     19 O35         27.3680    -4.3000   -13.6720 o          1 RX6      -0.538000
     20 C36         29.0910    -7.9570    -9.7750 c6         1 RX6      -0.101700
     21 C37         30.2380    -7.0260    -9.2910 c6         1 RX6      -0.074400
     22 C38         31.5830    -7.4310    -9.9430 c6         1 RX6      -0.111400
     23 C39         31.8610    -8.9340    -9.7130 c6         1 RX6       0.148600
     24 C40         29.4980    -9.4420    -9.5570 c6         1 RX6       0.155600
     25 N42         26.4530    -8.5960   -10.9450 ns         1 RX6      -0.521900
     26 O44         25.4850   -10.6440   -11.0560 o          1 RX6      -0.649100
     27 N45         26.3390    -9.7360   -13.0000 n          1 RX6      -0.392800
     28 C46         27.5380   -11.5800   -14.1630 c6         1 RX6      -0.108400
     29 C47         28.5020   -10.5410   -14.7980 c6         1 RX6      -0.067400
     30 C48         28.5970    -9.2570   -13.9200 c6         1 RX6      -0.098700
     31 C49         27.1670    -8.7040   -13.6810 c6         1 RX6       0.088000
     32 C50         26.1590   -10.9540   -13.8280 c6         1 RX6       0.089000
     33 C51         25.1620    -9.1320    -6.7090 c3         1 RX6       0.144100
     34 CT2         30.1200    -5.8480   -14.0550 c3         1 RX6       0.123600
     35 CT3         30.1450    -4.8300   -12.8850 c3         1 RX6       0.113000
     36 H1          29.0600    -7.7980   -15.4440 h1         1 RX6       0.040700
     37 HN1         28.9870    -5.1380   -11.1040 hn         1 RX6       0.321500
     38 H2          24.7750    -5.0950   -10.9590 h1         1 RX6       0.051033
     39 H2A         25.1040    -3.8320   -12.1630 h1         1 RX6       0.051033
     40 H2B         25.1000    -5.5470   -12.6450 h1         1 RX6       0.051033
     41 H4          31.4450    -9.1170   -12.7790 ha         1 RX6       0.154000
     42 H5          30.7740    -8.3150   -16.9770 ha         1 RX6       0.115000
     43 H7          33.0700    -9.1150   -17.4900 ha         1 RX6       0.120000
     44 H8          34.5550    -9.9160   -15.6520 ha         1 RX6       0.131000
     45 H32         26.6670    -9.4660    -9.0770 h1         1 RX6       0.079700
     46 H33         24.9690    -6.9400    -9.3590 h1         1 RX6       0.062200
     47 H33A        24.3460    -8.5880    -9.2860 h1         1 RX6       0.062200
     48 H34         27.4960    -6.5440    -9.3070 hc         1 RX6       0.044700
     49 H34A        27.8560    -7.6500    -7.9990 hc         1 RX6       0.044700
     50 HN35        25.9040    -7.2640    -7.1290 hn         1 RX6       0.404000
     51 H36         28.9640    -7.7940   -10.8540 hc         1 RX6       0.064700
     52 H37         30.0080    -5.9790    -9.5270 hc         1 RX6       0.040200
     53 H37A        30.3300    -7.0870    -8.1980 hc         1 RX6       0.040200
     54 H38         31.5560    -7.2230   -11.0210 hc         1 RX6       0.051700
     55 H38A        32.4020    -6.8300    -9.5250 hc         1 RX6       0.051700
     56 H39         32.0000    -9.1390    -8.6410 h1         1 RX6       0.048200
     57 H39A        32.7790    -9.2320   -10.2390 h1         1 RX6       0.048200
     58 H40         28.7350   -10.1120    -9.9790 h1         1 RX6       0.050200
     59 H40A        29.5890    -9.6620    -8.4830 h1         1 RX6       0.050200
     60 HN42        26.8950    -7.8760   -11.4980 hn         1 RX6       0.314500
     61 H46         27.4060   -12.4350   -14.8400 hc         1 RX6       0.056200
     62 H46A        27.9860   -11.9780   -13.2420 hc         1 RX6       0.056200
     63 H47         29.4940   -10.9950   -14.9230 hc         1 RX6       0.046700
     64 H47A        28.1490   -10.2780   -15.8050 hc         1 RX6       0.046700
     65 H48         29.0270    -9.5320   -12.9480 hc         1 RX6       0.077700
     66 H49         26.7060    -8.4580   -14.6480 h1         1 RX6       0.055200
     67 H49A        27.2070    -7.7660   -13.1130 h1         1 RX6       0.055200
     68 H50         25.5300   -11.6930   -13.3120 h1         1 RX6       0.065200
     69 H50A        25.6430   -10.6810   -14.7600 h1         1 RX6       0.065200
     70 H51         25.0600    -8.9620    -5.6290 h1         1 RX6       0.032700
     71 H51A        24.3430    -9.7920    -7.0270 h1         1 RX6       0.032700
     72 H51B        26.1120    -9.6560    -6.8790 h1         1 RX6       0.032700
     73 HT2         31.1320    -5.9480   -14.4720 h1         1 RX6       0.043700
     74 HT2A        29.4620    -5.4720   -14.8490 h1         1 RX6       0.043700
     75 HT3         30.3030    -3.8210   -13.2890 h1         1 RX6       0.071700
     76 HT3A        30.9970    -5.0640   -12.2340 h1         1 RX6       0.071700
     77 C43         26.0430    -9.7170   -11.6220 c          1 RX6       0.640100
@<TRIPOS>BOND
     1     1     6 1   
     2     1     7 1   
     3     1    30 1   
     4     1    36 1   
     5     2    13 1   
     6     2    35 1   
     7     2    37 1   
     8     3    23 1   
     9     3    24 1   
    10     4     5 1   
    11     4    38 1   
    12     4    39 1   
    13     4    40 1   
    14     5    13 1   
    15     6     8 ar  
    16     6     9 ar  
    17     7    34 1   
    18     8    10 ar  
    19     8    41 1   
    20     9    11 ar  
    21     9    42 1   
    22    10    12 ar  
    23    10    14 1   
    24    11    12 ar  
    25    11    43 1   
    26    12    44 1   
    27    13    19 2   
    28    15    16 1   
    29    15    17 1   
    30    15    25 1   
    31    15    45 1   
    32    16    18 1   
    33    16    46 1   
    34    16    47 1   
    35    17    20 1   
    36    17    48 1   
    37    17    49 1   
    38    18    33 1   
    39    18    50 1   
    40    20    21 1   
    41    20    24 1   
    42    20    51 1   
    43    21    22 1   
    44    21    52 1   
    45    21    53 1   
    46    22    23 1   
    47    22    54 1   
    48    22    55 1   
    49    23    56 1   
    50    23    57 1   
    51    24    58 1   
    52    24    59 1   
    53    25    60 1   
    54    25    77 1   
    55    26    77 2   
    56    27    31 1   
    57    27    32 1   
    58    27    77 1   
    59    28    29 1   
    60    28    32 1   
    61    28    61 1   
    62    28    62 1   
    63    29    30 1   
    64    29    63 1   
    65    29    64 1   
    66    30    31 1   
    67    30    65 1   
    68    31    66 1   
    69    31    67 1   
    70    32    68 1   
    71    32    69 1   
    72    33    70 1   
    73    33    71 1   
    74    33    72 1   
    75    34    35 1   
    76    34    73 1   
    77    34    74 1   
    78    35    75 1   
    79    35    76 1   
@<TRIPOS>SUBSTRUCTURE
     1 RX6         1 TEMP              0 ****  ****    0 ROOT
