@<TRIPOS>MOLECULE
RX7
   30    30     1     0     0
SMALL
No Charge or Current Charge


@<TRIPOS>ATOM
      1 C4          19.9850    -2.1650    10.3610 cc         1 RX7      -0.218300
      2 C5          20.5890    -0.7930    10.2700 c3         1 RX7       0.242100
      3 C6          22.6470     0.3660     9.2940 c3         1 RX7       0.195200
      4 C7          23.3020     0.7610    10.6410 c3         1 RX7      -0.103600
      5 C8          21.7550     1.5260     8.7690 c3         1 RX7      -0.103600
      6 N           21.8390    -0.8660     9.4910 n7         1 RX7      -0.871400
      7 C           21.3750    -3.0950    12.2960 c3         1 RX7      -0.029800
      8 O           23.2120    -0.4750     7.0110 oh         1 RX7      -0.668000
      9 C1          20.3050    -3.1800    11.2360 cd         1 RX7      -0.075300
     10 C2          19.5020    -4.3390    11.0320 cd         1 RX7      -0.132000
     11 C3          18.5820    -4.2190    10.0230 cc         1 RX7      -0.240000
     12 C9          23.7660     0.0360     8.2430 c3         1 RX7       0.166600
     13 S           18.6790    -2.6340     9.2750 ss         1 RX7       0.183000
     14 H1          20.7760    -0.4190    11.2860 h1         1 RX7       0.037200
     15 H2          19.8630    -0.1210     9.7940 h1         1 RX7       0.037200
     16 H3          22.5500     1.0470    11.3860 hc         1 RX7       0.039700
     17 H4          23.8890    -0.0710    11.0500 hc         1 RX7       0.039700
     18 H5          23.9760     1.6150    10.5050 hc         1 RX7       0.039700
     19 H6          21.0420     1.8640     9.5310 hc         1 RX7       0.039700
     20 H7          22.3730     2.3900     8.4950 hc         1 RX7       0.039700
     21 H8          21.1880     1.2230     7.8800 hc         1 RX7       0.039700
     22 H9          21.6080    -1.2110     8.5520 hn         1 RX7       0.433000
     23 H11         21.1220    -2.3390    13.0490 hc         1 RX7       0.044700
     24 H12         21.5030    -4.0520    12.8150 hc         1 RX7       0.044700
     25 H13         22.3420    -2.8220    11.8580 hc         1 RX7       0.044700
     26 H14         23.9720    -0.6870     6.4250 ho         1 RX7       0.445000
     27 H15         19.6070    -5.2420    11.6260 ha         1 RX7       0.131000
     28 H16         17.8580    -4.9390     9.6650 h4         1 RX7       0.149000
     29 H17         24.4500    -0.7070     8.6750 h1         1 RX7       0.025700
     30 H18         24.3530     0.9430     8.0470 h1         1 RX7       0.025700
@<TRIPOS>BOND
     1     1     2 1   
     2     1     9 2   
     3     1    13 1   
     4     2     6 1   
     5     2    14 1   
     6     2    15 1   
     7     3     4 1   
     8     3     5 1   
     9     3     6 1   
    10     3    12 1   
    11     4    16 1   
    12     4    17 1   
    13     4    18 1   
    14     5    19 1   
    15     5    20 1   
    16     5    21 1   
    17     6    22 1   
    18     7     9 1   
    19     7    23 1   
    20     7    24 1   
    21     7    25 1   
    22     8    12 1   
    23     8    26 1   
    24     9    10 1   
    25    10    11 2   
    26    10    27 1   
    27    11    13 1   
    28    11    28 1   
    29    12    29 1   
    30    12    30 1   
@<TRIPOS>SUBSTRUCTURE
     1 RX7         1 TEMP              0 ****  ****    0 ROOT
