@<TRIPOS>MOLECULE
RX7
   30    30     1     0     0
SMALL
bcc


@<TRIPOS>ATOM
      1 C4          19.9190    -2.0950    10.4380 cc         1 RX7      -0.073400
      2 C5          20.5670    -0.7540    10.2800 c3         1 RX7       0.242100
      3 C6          22.5670     0.3410     9.2930 c3         1 RX7       0.195200
      4 C7          23.0880     0.8370    10.6410 c3         1 RX7      -0.103600
      5 C8          21.7970     1.4700     8.5930 c3         1 RX7      -0.103600
      6 N           21.7750    -0.8760     9.4840 n7         1 RX7      -0.816200
      7 C           21.6270    -3.1610    11.9720 c3         1 RX7      -0.029800
      8 O           23.3750    -0.5430     7.2040 oh         1 RX7      -0.605800
      9 C1          20.3740    -3.1690    11.1530 cd         1 RX7      -0.075300
     10 C2          19.5010    -4.2910    11.0400 cd         1 RX7      -0.150000
     11 C3          18.4190    -4.0570    10.2490 cc         1 RX7      -0.113100
     12 C9          23.7870    -0.0560     8.4620 c3         1 RX7       0.143400
     13 S           18.4450    -2.4630     9.6270 ss         1 RX7      -0.106800
     14 H1          20.8310    -0.3810    11.2720 h1         1 RX7       0.037200
     15 H2          19.8360    -0.0410     9.8750 h1         1 RX7       0.037200
     16 H3          22.2950     1.2630    11.2570 hc         1 RX7       0.039700
     17 H4          23.5530     0.0250    11.2030 hc         1 RX7       0.039700
     18 H5          23.8320     1.6210    10.4950 hc         1 RX7       0.039700
     19 H6          20.9340     1.7870     9.1810 hc         1 RX7       0.039700
     20 H7          22.4300     2.3490     8.4560 hc         1 RX7       0.039700
     21 H8          21.4330     1.1630     7.6120 hc         1 RX7       0.039700
     22 H9          21.5270    -1.2500     8.5760 hn         1 RX7       0.377800
     23 H11         21.4390    -2.8040    12.9870 hc         1 RX7       0.044700
     24 H12         22.0480    -4.1630    12.0560 hc         1 RX7       0.044700
     25 H13         22.3800    -2.5130    11.5250 hc         1 RX7       0.044700
     26 H14         24.1480    -0.8790     6.7430 ho         1 RX7       0.406000
     27 H15         19.6810    -5.2370    11.5340 ha         1 RX7       0.149000
     28 H16         17.6160    -4.7340    10.0010 h4         1 RX7       0.167000
     29 H17         24.3500    -0.8170     9.0180 h1         1 RX7       0.025700
     30 H18         24.4390     0.8210     8.3540 h1         1 RX7       0.025700
@<TRIPOS>BOND
     1     1     2 1   
     2     1     9 2   
     3     1    13 1   
     4     2     6 1   
     5     2    14 1   
     6     2    15 1   
     7     3     4 1   
     8     3     5 1   
     9     3     6 1   
    10     3    12 1   
    11     4    16 1   
    12     4    17 1   
    13     4    18 1   
    14     5    19 1   
    15     5    20 1   
    16     5    21 1   
    17     6    22 1   
    18     7     9 1   
    19     7    23 1   
    20     7    24 1   
    21     7    25 1   
    22     8    12 1   
    23     8    26 1   
    24     9    10 1   
    25    10    11 2   
    26    10    27 1   
    27    11    13 1   
    28    11    28 1   
    29    12    29 1   
    30    12    30 1   
@<TRIPOS>SUBSTRUCTURE
     1 RX7         1 TEMP              0 ****  ****    0 ROOT
