@<TRIPOS>MOLECULE
RX8
   45    47     1     0     0
SMALL
bcc


@<TRIPOS>ATOM
      1 O1           1.8220     1.9960    -1.8570 oh         1 RX8      -0.587800
      2 C10          1.0440     2.4400    -0.7590 c3         1 RX8       0.145800
      3 C11          1.6070     3.7330    -0.1770 c3         1 RX8      -0.109600
      4 C12         -0.3550     2.6820    -1.3060 c3         1 RX8      -0.109600
      5 C9           1.0700     1.3850     0.3670 c3         1 RX8       0.015300
      6 N3           0.5860     0.0720    -0.0250 na         1 RX8      -0.094300
      7 C5           1.3650    -0.9090    -0.5810 cc         1 RX8       0.395800
      8 C6           2.8540    -0.8670    -0.6550 c3         1 RX8       0.126100
      9 O            3.3630    -0.8190     0.6550 os         1 RX8      -0.416600
     10 C7           4.7730    -0.7180     0.6890 c3         1 RX8       0.137400
     11 C8           5.2230    -0.6100     2.1280 c3         1 RX8      -0.093100
     12 N2           0.6690    -1.9440    -0.9610 nd         1 RX8      -0.556100
     13 C4          -0.6170    -1.6390    -0.6380 ca         1 RX8      -0.100900
     14 C           -1.7830    -2.4340    -0.8350 ca         1 RX8       0.753200
     15 N           -1.6810    -3.6100    -1.4880 nv         1 RX8      -0.950500
     16 C3          -0.7040    -0.4000    -0.0320 ca         1 RX8      -0.026200
     17 C2          -1.9570     0.0730     0.4680 ca         1 RX8      -0.158300
     18 C13         -2.1980     1.2630     1.1790 ca         1 RX8      -0.101000
     19 C14         -3.4580     1.5920     1.6170 ca         1 RX8      -0.155000
     20 C15         -4.5350     0.7350     1.3570 ca         1 RX8      -0.110000
     21 C16         -4.3280    -0.4390     0.6750 ca         1 RX8      -0.187300
     22 C1          -3.0470    -0.8120     0.2210 ca         1 RX8       0.465600
     23 N1          -2.9480    -2.0120    -0.4180 nb         1 RX8      -0.794000
     24 H1           2.7500     2.1810    -1.6790 ho         1 RX8       0.399000
     25 H2           1.6210     4.5200    -0.9330 hc         1 RX8       0.049533
     26 H3           1.0010     4.0830     0.6590 hc         1 RX8       0.049533
     27 H4           2.6270     3.5980     0.1900 hc         1 RX8       0.049533
     28 H5          -0.8050     1.7770    -1.7150 hc         1 RX8       0.049533
     29 H6          -1.0160     3.0690    -0.5320 hc         1 RX8       0.049533
     30 H7          -0.3130     3.4230    -2.1050 hc         1 RX8       0.049533
     31 H8           2.0900     1.2660     0.7310 h1         1 RX8       0.071200
     32 H9           0.4970     1.7300     1.2250 h1         1 RX8       0.071200
     33 H10          3.1780    -1.7720    -1.1820 h1         1 RX8       0.049200
     34 H11          3.2020    -0.0140    -1.2460 h1         1 RX8       0.049200
     35 H12          5.2290    -1.5950     0.2110 h1         1 RX8       0.021700
     36 H13          5.1040     0.1630     0.1210 h1         1 RX8       0.021700
     37 H14          4.8100     0.2780     2.6070 hc         1 RX8       0.044700
     38 H15          4.9250    -1.4860     2.7050 hc         1 RX8       0.044700
     39 H16          6.3100    -0.5380     2.1690 hc         1 RX8       0.044700
     40 H17         -2.4640    -4.2400    -1.4590 hn         1 RX8       0.436300
     41 H18         -0.7730    -4.0270    -1.6060 hn         1 RX8       0.436300
     42 H19         -1.3910     1.9450     1.3990 ha         1 RX8       0.118000
     43 H20         -3.6140     2.5130     2.1630 ha         1 RX8       0.128000
     44 H21         -5.5290     0.9960     1.6950 ha         1 RX8       0.131000
     45 H22         -5.1510    -1.1140     0.4750 ha         1 RX8       0.146000
@<TRIPOS>BOND
     1     1     2 1   
     2     1    24 1   
     3     2     3 1   
     4     2     4 1   
     5     2     5 1   
     6     3    25 1   
     7     3    26 1   
     8     3    27 1   
     9     4    28 1   
    10     4    29 1   
    11     4    30 1   
    12     5     6 1   
    13     5    31 1   
    14     5    32 1   
    15     6     7 1   
    16     6    16 1   
    17     7     8 1   
    18     7    12 2   
    19     8     9 1   
    20     8    33 1   
    21     8    34 1   
    22     9    10 1   
    23    10    11 1   
    24    10    35 1   
    25    10    36 1   
    26    11    37 1   
    27    11    38 1   
    28    11    39 1   
    29    12    13 1   
    30    13    14 ar  
    31    13    16 ar  
    32    14    15 1   
    33    14    23 ar  
    34    15    40 1   
    35    15    41 1   
    36    16    17 ar  
    37    17    18 ar  
    38    17    22 ar  
    39    18    19 ar  
    40    18    42 1   
    41    19    20 ar  
    42    19    43 1   
    43    20    21 ar  
    44    20    44 1   
    45    21    22 ar  
    46    21    45 1   
    47    22    23 ar  
@<TRIPOS>SUBSTRUCTURE
     1 RX8         1 TEMP              0 ****  ****    0 ROOT
