@<TRIPOS>MOLECULE
RX8
   45    47     1     0     0
SMALL
No Charge or Current Charge


@<TRIPOS>ATOM
      1 O1           1.8190     2.0700    -1.8030 oh         1 RX8      -0.650000
      2 C10          1.0000     2.4930    -0.7110 c3         1 RX8       0.169000
      3 C11          1.5910     3.8190    -0.1840 c3         1 RX8      -0.109600
      4 C12         -0.4210     2.7330    -1.2720 c3         1 RX8      -0.109600
      5 C9           1.0600     1.4050     0.4130 c3         1 RX8       0.044600
      6 N3           0.6210     0.0390     0.0270 na         1 RX8      -0.123600
      7 C5           1.4520    -0.9550    -0.5180 cc         1 RX8       0.395800
      8 C6           2.9650    -0.8740    -0.6070 c3         1 RX8       0.149300
      9 O            3.5390    -0.9040     0.7200 os         1 RX8      -0.463000
     10 C7           4.9690    -0.7990     0.7520 c3         1 RX8       0.160600
     11 C8           5.4030    -0.8340     2.2260 c3         1 RX8      -0.093100
     12 N2           0.7320    -2.0040    -0.9570 nd         1 RX8      -0.556100
     13 C4          -0.5890    -1.6600    -0.6440 ca         1 RX8      -0.035600
     14 C           -1.7650    -2.4060    -0.8710 ca         1 RX8       0.687900
     15 N           -1.8070    -3.6060    -1.4600 nv         1 RX8      -1.060900
     16 C3          -0.6830    -0.4420    -0.0170 ca         1 RX8      -0.026200
     17 C2          -1.9610     0.0100     0.4360 ca         1 RX8      -0.093000
     18 C13         -2.1850     1.2130     1.1510 ca         1 RX8      -0.083000
     19 C14         -3.4770     1.5860     1.5510 ca         1 RX8      -0.136000
     20 C15         -4.5720     0.7680     1.2560 ca         1 RX8      -0.092000
     21 C16         -4.3700    -0.4340     0.5650 ca         1 RX8      -0.104000
     22 C1          -3.0860    -0.8350     0.1520 ca         1 RX8       0.335000
     23 N1          -2.9760    -2.0240    -0.4960 nb         1 RX8      -0.794000
     24 H1           1.7740     2.7730    -2.4870 ho         1 RX8       0.438000
     25 H2           1.5910     4.5910    -0.9640 hc         1 RX8       0.049533
     26 H3           1.0040     4.1950     0.6630 hc         1 RX8       0.049533
     27 H4           2.6250     3.6800     0.1560 hc         1 RX8       0.049533
     28 H5          -0.8610     1.8070    -1.6600 hc         1 RX8       0.049533
     29 H6          -1.0850     3.1410    -0.5030 hc         1 RX8       0.049533
     30 H7          -0.3970     3.4570    -2.0960 hc         1 RX8       0.049533
     31 H8           2.1110     1.3280     0.7180 h1         1 RX8       0.071200
     32 H9           0.5550     1.7370     1.3200 h1         1 RX8       0.071200
     33 H10          3.3320    -1.7200    -1.2020 h1         1 RX8       0.049200
     34 H11          3.2500     0.0460    -1.1300 h1         1 RX8       0.049200
     35 H12          5.4340    -1.6340     0.2120 h1         1 RX8       0.021700
     36 H13          5.3010     0.1430     0.2950 h1         1 RX8       0.021700
     37 H14          4.9580     0.0010     2.7790 hc         1 RX8       0.044700
     38 H15          5.0920    -1.7730     2.6980 hc         1 RX8       0.044700
     39 H16          6.4940    -0.7550     2.3020 hc         1 RX8       0.044700
     40 H17         -2.6420    -4.1360    -1.2510 hn         1 RX8       0.491500
     41 H18         -0.9330    -4.1190    -1.4700 hn         1 RX8       0.491500
     42 H19         -1.3870     1.8850     1.4190 ha         1 RX8       0.100000
     43 H20         -3.6270     2.5160     2.0950 ha         1 RX8       0.110000
     44 H21         -5.5730     1.0590     1.5670 ha         1 RX8       0.113000
     45 H22         -5.2230    -1.0710     0.3460 ha         1 RX8       0.128000
@<TRIPOS>BOND
     1     1     2 1   
     2     1    24 1   
     3     2     3 1   
     4     2     4 1   
     5     2     5 1   
     6     3    25 1   
     7     3    26 1   
     8     3    27 1   
     9     4    28 1   
    10     4    29 1   
    11     4    30 1   
    12     5     6 1   
    13     5    31 1   
    14     5    32 1   
    15     6     7 1   
    16     6    16 1   
    17     7     8 1   
    18     7    12 2   
    19     8     9 1   
    20     8    33 1   
    21     8    34 1   
    22     9    10 1   
    23    10    11 1   
    24    10    35 1   
    25    10    36 1   
    26    11    37 1   
    27    11    38 1   
    28    11    39 1   
    29    12    13 1   
    30    13    14 ar  
    31    13    16 ar  
    32    14    15 1   
    33    14    23 ar  
    34    15    40 1   
    35    15    41 1   
    36    16    17 ar  
    37    17    18 ar  
    38    17    22 ar  
    39    18    19 ar  
    40    18    42 1   
    41    19    20 ar  
    42    19    43 1   
    43    20    21 ar  
    44    20    44 1   
    45    21    22 ar  
    46    21    45 1   
    47    22    23 ar  
@<TRIPOS>SUBSTRUCTURE
     1 RX8         1 TEMP              0 ****  ****    0 ROOT
