@<TRIPOS>MOLECULE
RX9
   19    18     1     0     0
SMALL
abcg2


@<TRIPOS>ATOM
      1 N          139.7690   181.8000   153.8450 nv         1 RX9      -0.927000
      2 CA         138.9530   182.3480   152.8460 ce         1 RX9       0.019800
      3 C          139.6430   182.4030   151.4810 c          1 RX9       0.707200
      4 O          140.6290   181.6440   151.3510 o          1 RX9      -0.722000
      5 CB         137.7140   182.7990   153.1250 c2         1 RX9      -0.241400
      6 CG1        136.7220   183.3440   152.1300 c3         1 RX9       0.012800
      7 CG2        137.2070   182.7380   154.5440 c3         1 RX9      -0.029900
      8 CD1        136.6620   184.8700   152.1140 c3         1 RX9      -0.076100
      9 OXT        139.2040   183.1910   150.6230 o          1 RX9      -0.722000
     10 H          139.2810   181.2490   154.5340 hn         1 RX9       0.421500
     11 H2         140.5090   181.2600   153.4200 hn         1 RX9       0.421500
     12 HG12       135.7310   182.9620   152.4010 hc         1 RX9       0.030200
     13 HG13       136.9280   182.9850   151.1250 hc         1 RX9       0.030200
     14 HG21       137.9790   182.9930   155.2740 hc         1 RX9       0.007700
     15 HG22       136.3780   183.4310   154.6950 hc         1 RX9       0.007700
     16 HG23       136.8350   181.7430   154.8130 hc         1 RX9       0.007700
     17 HD11       135.8790   185.2310   151.4440 hc         1 RX9       0.017033
     18 HD12       136.4540   185.2760   153.1070 hc         1 RX9       0.017033
     19 HD13       137.6110   185.2840   151.7770 hc         1 RX9       0.017033
@<TRIPOS>BOND
     1     1     2 1   
     2     1    10 1   
     3     1    11 1   
     4     2     3 1   
     5     2     5 2   
     6     3     4 1   
     7     3     9 1   
     8     5     6 1   
     9     5     7 1   
    10     6     8 1   
    11     6    12 1   
    12     6    13 1   
    13     7    14 1   
    14     7    15 1   
    15     7    16 1   
    16     8    17 1   
    17     8    18 1   
    18     8    19 1   
@<TRIPOS>SUBSTRUCTURE
     1 RX9         1 TEMP              0 ****  ****    0 ROOT
