@<TRIPOS>MOLECULE
RX9
   19    18     1     0     0
SMALL
No Charge or Current Charge


@<TRIPOS>ATOM
      1 N          139.8030   181.7840   153.8130 nv         1 RX9      -0.927000
      2 CA         138.9690   182.3500   152.8220 ce         1 RX9       0.019800
      3 C          139.6340   182.4690   151.4060 c          1 RX9       0.707200
      4 O          140.7790   182.0460   151.2710 o          1 RX9      -0.722000
      5 CB         137.6940   182.7340   153.1510 c2         1 RX9      -0.241400
      6 CG1        136.6510   183.3330   152.2040 c3         1 RX9       0.012800
      7 CG2        137.0960   182.6100   154.5570 c3         1 RX9      -0.029900
      8 CD1        136.7770   184.8640   152.0650 c3         1 RX9      -0.076100
      9 OXT        139.0340   182.9700   150.4650 o          1 RX9      -0.722000
     10 H          139.4180   181.5220   154.7160 hn         1 RX9       0.421500
     11 H2         140.7070   181.4030   153.5340 hn         1 RX9       0.421500
     12 HG12       135.6360   183.1090   152.5590 hc         1 RX9       0.030200
     13 HG13       136.6940   182.8680   151.2140 hc         1 RX9       0.030200
     14 HG21       137.8370   182.4030   155.3360 hc         1 RX9       0.007700
     15 HG22       136.5880   183.5360   154.8550 hc         1 RX9       0.007700
     16 HG23       136.3530   181.8030   154.5930 hc         1 RX9       0.007700
     17 HD11       136.0220   185.2470   151.3680 hc         1 RX9       0.017033
     18 HD12       136.6290   185.3550   153.0340 hc         1 RX9       0.017033
     19 HD13       137.7670   185.1450   151.6860 hc         1 RX9       0.017033
@<TRIPOS>BOND
     1     1     2 1   
     2     1    10 1   
     3     1    11 1   
     4     2     3 1   
     5     2     5 2   
     6     3     4 1   
     7     3     9 1   
     8     5     6 1   
     9     5     7 1   
    10     6     8 1   
    11     6    12 1   
    12     6    13 1   
    13     7    14 1   
    14     7    15 1   
    15     7    16 1   
    16     8    17 1   
    17     8    18 1   
    18     8    19 1   
@<TRIPOS>SUBSTRUCTURE
     1 RX9         1 TEMP              0 ****  ****    0 ROOT
