@<TRIPOS>MOLECULE
RXA
   18    19     1     0     0
SMALL
No Charge or Current Charge


@<TRIPOS>ATOM
      1 OAA         -3.3170    -0.4090     0.0690 o          1 RXA      -0.463000
      2 CAI         -2.1210    -0.1410     0.0470 c          1 RXA       0.479000
      3 NAH         -1.6880     1.1630     0.0320 ns         1 RXA      -0.469500
      4 CAK         -0.9810    -1.2470     0.0330 c          1 RXA       0.503700
      5 OAC         -1.2540    -2.4460     0.0450 o          1 RXA      -0.444100
      6 CAM          0.4470    -0.7600     0.0060 ca         1 RXA      -0.145600
      7 CAL          0.7140     0.6330    -0.0070 ca         1 RXA      -0.118600
      8 CAF          2.0560     1.0750    -0.0330 ca         1 RXA      -0.062000
      9 CAJ         -0.4100     1.6490     0.0070 c          1 RXA       0.590600
     10 OAB         -0.2120     2.8530    -0.0030 o          1 RXA      -0.503000
     11 CAG          1.5190    -1.6810    -0.0080 ca         1 RXA      -0.057000
     12 CAE          2.8460    -1.2250    -0.0330 ca         1 RXA      -0.095000
     13 CAD          3.1140     0.1520    -0.0460 ca         1 RXA      -0.089000
     14 HNAH        -2.4130     1.8650     0.0400 hn         1 RXA       0.337500
     15 HAF          2.2840     2.1400    -0.0430 ha         1 RXA       0.145000
     16 HAG          1.3270    -2.7530     0.0020 ha         1 RXA       0.141000
     17 HAE          3.6660    -1.9390    -0.0430 ha         1 RXA       0.127000
     18 HAD          4.1430     0.5050    -0.0660 ha         1 RXA       0.126000
@<TRIPOS>BOND
     1     1     2 2   
     2     2     3 1   
     3     2     4 1   
     4     3     9 1   
     5     3    14 1   
     6     4     5 2   
     7     4     6 1   
     8     6     7 ar  
     9     6    11 ar  
    10     7     8 ar  
    11     7     9 1   
    12     8    13 ar  
    13     8    15 1   
    14     9    10 2   
    15    11    12 ar  
    16    11    16 1   
    17    12    13 ar  
    18    12    17 1   
    19    13    18 1   
@<TRIPOS>SUBSTRUCTURE
     1 RXA         1 TEMP              0 ****  ****    0 ROOT
