@<TRIPOS>MOLECULE
RXA
   18    19     1     0     0
SMALL
abcg2


@<TRIPOS>ATOM
      1 OAA         -3.2130    -0.4920     0.0480 o          1 RXA      -0.463000
      2 CAI         -2.0570    -0.1590     0.0390 c          1 RXA       0.479000
      3 NAH         -1.6610     1.1480     0.0310 ns         1 RXA      -0.469500
      4 CAK         -0.9430    -1.2120     0.0380 c          1 RXA       0.503700
      5 OAC         -1.2660    -2.3720     0.0600 o          1 RXA      -0.444100
      6 CAM          0.4450    -0.7420     0.0090 ca         1 RXA      -0.145600
      7 CAL          0.7190     0.6280    -0.0040 ca         1 RXA      -0.118600
      8 CAF          2.0340     1.0710    -0.0320 ca         1 RXA      -0.062000
      9 CAJ         -0.3700     1.6330     0.0120 c          1 RXA       0.590600
     10 OAB         -0.1680     2.8250     0.0080 o          1 RXA      -0.503000
     11 CAG          1.4910    -1.6600    -0.0060 ca         1 RXA      -0.057000
     12 CAE          2.8010    -1.2120    -0.0350 ca         1 RXA      -0.095000
     13 CAD          3.0710     0.1510    -0.0480 ca         1 RXA      -0.089000
     14 HNAH        -2.3990     1.8450     0.0380 hn         1 RXA       0.337500
     15 HAF          2.2480     2.1310    -0.0430 ha         1 RXA       0.145000
     16 HAG          1.2810    -2.7210     0.0040 ha         1 RXA       0.141000
     17 HAE          3.6130    -1.9260    -0.0480 ha         1 RXA       0.127000
     18 HAD          4.0950     0.4990    -0.0710 ha         1 RXA       0.126000
@<TRIPOS>BOND
     1     1     2 2   
     2     2     3 1   
     3     2     4 1   
     4     3     9 1   
     5     3    14 1   
     6     4     5 2   
     7     4     6 1   
     8     6     7 ar  
     9     6    11 ar  
    10     7     8 ar  
    11     7     9 1   
    12     8    13 ar  
    13     8    15 1   
    14     9    10 2   
    15    11    12 ar  
    16    11    16 1   
    17    12    13 ar  
    18    12    17 1   
    19    13    18 1   
@<TRIPOS>SUBSTRUCTURE
     1 RXA         1 TEMP              0 ****  ****    0 ROOT
