@<TRIPOS>MOLECULE
RXB
   41    43     1     0     0
SMALL
abcg2


@<TRIPOS>ATOM
      1 OAE         -5.6700     0.3000    -1.0420 o          1 RXB      -0.501000
      2 CAW         -4.6090     0.4620    -0.4870 c          1 RXB       0.587600
      3 NAP         -4.5000     1.3540     0.5540 ns         1 RXB      -0.465500
      4 CAV         -3.3760     1.6340     1.2690 c          1 RXB       0.484000
      5 OAD         -3.3510     2.4350     2.1660 o          1 RXB      -0.464000
      6 CAY         -3.3770    -0.2670    -0.8840 ca         1 RXB      -0.088600
      7 CAZ         -2.1510    -0.0730    -0.2220 ca         1 RXB      -0.224600
      8 CAX         -2.1040     0.8690     0.8890 c          1 RXB       0.520700
      9 OAF         -1.1230     1.1110     1.5610 o          1 RXB      -0.496100
     10 CAN         -3.4820    -1.1460    -1.9420 ca         1 RXB      -0.096000
     11 CAJ         -2.3540    -1.8450    -2.3510 ca         1 RXB      -0.054000
     12 CAM         -1.1370    -1.6790    -1.7250 ca         1 RXB      -0.137000
     13 CAU         -1.0080    -0.7900    -0.6520 ca         1 RXB       0.062000
     14 NAO          0.1910    -0.5920     0.0050 ns         1 RXB      -0.148000
     15 CAS          1.4330    -1.0510    -0.3140 c          1 RXB       0.605100
     16 OAC          1.7060    -1.7920    -1.2290 o          1 RXB      -0.556100
     17 CBA          2.5160    -0.4510     0.5900 c3         1 RXB       0.146600
     18 OAQ          3.6750    -1.2560     0.5420 os         1 RXB      -0.423100
     19 CAR          3.5790    -2.4910     1.0510 c          1 RXB       0.599100
     20 OAB          2.5680    -2.9050     1.5550 o          1 RXB      -0.480000
     21 CAA          4.8670    -3.2400     0.9150 c3         1 RXB      -0.153100
     22 CAT          2.8740     0.9200     0.0760 ca         1 RXB      -0.110300
     23 CAL          2.4930     2.0470     0.7940 ca         1 RXB      -0.081500
     24 CAI          2.7800     3.3170     0.3110 ca         1 RXB      -0.113500
     25 CAG          3.4530     3.4640    -0.8940 ca         1 RXB      -0.094000
     26 CAH          3.8370     2.3380    -1.6130 ca         1 RXB      -0.113500
     27 CAK          3.5460     1.0700    -1.1350 ca         1 RXB      -0.081500
     28 HNAP        -5.3430     1.8600     0.8060 hn         1 RXB       0.339500
     29 HAN         -4.4270    -1.2880    -2.4450 ha         1 RXB       0.147000
     30 HAJ         -2.4260    -2.5390    -3.1780 ha         1 RXB       0.128000
     31 HAM         -0.2880    -2.2450    -2.0680 ha         1 RXB       0.161000
     32 HNAO         0.1260     0.0280     0.8070 hn         1 RXB       0.193000
     33 HBA          2.1470    -0.3730     1.6180 h1         1 RXB       0.081700
     34 HAA          5.6610    -2.7290     1.4600 hc         1 RXB       0.073367
     35 HAAA         4.7610    -4.2480     1.3020 hc         1 RXB       0.073367
     36 HAAB         5.1700    -3.2850    -0.1310 hc         1 RXB       0.073367
     37 HAL          1.9770     1.9380     1.7410 ha         1 RXB       0.125500
     38 HAI          2.4840     4.1880     0.8790 ha         1 RXB       0.118500
     39 HAG          3.6790     4.4520    -1.2720 ha         1 RXB       0.116000
     40 HAH          4.3640     2.4500    -2.5520 ha         1 RXB       0.118500
     41 HAK          3.8450     0.2020    -1.7080 ha         1 RXB       0.125500
@<TRIPOS>BOND
     1     1     2 2   
     2     2     3 1   
     3     2     6 1   
     4     3     4 1   
     5     3    28 1   
     6     4     5 2   
     7     4     8 1   
     8     6     7 ar  
     9     6    10 ar  
    10     7     8 1   
    11     7    13 ar  
    12     8     9 2   
    13    10    11 ar  
    14    10    29 1   
    15    11    12 ar  
    16    11    30 1   
    17    12    13 ar  
    18    12    31 1   
    19    13    14 1   
    20    14    15 1   
    21    14    32 1   
    22    15    16 2   
    23    15    17 1   
    24    17    18 1   
    25    17    22 1   
    26    17    33 1   
    27    18    19 1   
    28    19    20 2   
    29    19    21 1   
    30    21    34 1   
    31    21    35 1   
    32    21    36 1   
    33    22    23 ar  
    34    22    27 ar  
    35    23    24 ar  
    36    23    37 1   
    37    24    25 ar  
    38    24    38 1   
    39    25    26 ar  
    40    25    39 1   
    41    26    27 ar  
    42    26    40 1   
    43    27    41 1   
@<TRIPOS>SUBSTRUCTURE
     1 RXB         1 TEMP              0 ****  ****    0 ROOT
