@<TRIPOS>MOLECULE
RXB
   41    43     1     0     0
SMALL
No Charge or Current Charge


@<TRIPOS>ATOM
      1 OAE         -5.8400     0.3310    -0.9210 o          1 RXB      -0.501000
      2 CAW         -4.7420     0.4890    -0.4110 c          1 RXB       0.587600
      3 NAP         -4.6030     1.3350     0.6490 ns         1 RXB      -0.465500
      4 CAV         -3.4740     1.6520     1.3570 c          1 RXB       0.484000
      5 OAD         -3.5220     2.4390     2.2960 o          1 RXB      -0.464000
      6 CAY         -3.4930    -0.2210    -0.9030 ca         1 RXB      -0.088600
      7 CAZ         -2.2170    -0.0250    -0.2970 ca         1 RXB      -0.224600
      8 CAX         -2.1320     0.9410     0.8810 c          1 RXB       0.520700
      9 OAF         -1.0740     1.1850     1.4600 o          1 RXB      -0.496100
     10 CAN         -3.6130    -1.1020    -1.9980 ca         1 RXB      -0.096000
     11 CAJ         -2.4970    -1.7800    -2.4970 ca         1 RXB      -0.054000
     12 CAM         -1.2430    -1.5940    -1.9060 ca         1 RXB      -0.137000
     13 CAU         -1.0800    -0.7300    -0.8020 ca         1 RXB       0.062000
     14 NAO          0.1960    -0.5370    -0.2010 ns         1 RXB      -0.148000
     15 CAS          1.4230    -1.1720    -0.3420 c          1 RXB       0.605100
     16 OAC          1.6210    -2.1310    -1.0830 o          1 RXB      -0.556100
     17 CBA          2.5400    -0.5420     0.5440 c3         1 RXB       0.146600
     18 OAQ          3.7620    -1.3260     0.5600 os         1 RXB      -0.423100
     19 CAR          3.7490    -2.5430     1.1920 c          1 RXB       0.599100
     20 OAB          2.7960    -2.9910     1.8150 o          1 RXB      -0.480000
     21 CAA          5.0980    -3.2390     1.0940 c3         1 RXB      -0.153100
     22 CAT          2.8890     0.8620     0.0510 ca         1 RXB      -0.110300
     23 CAL          2.5170     1.9950     0.8050 ca         1 RXB      -0.081500
     24 CAI          2.8220     3.2860     0.3430 ca         1 RXB      -0.113500
     25 CAG          3.5010     3.4570    -0.8750 ca         1 RXB      -0.094000
     26 CAH          3.8750     2.3340    -1.6320 ca         1 RXB      -0.113500
     27 CAK          3.5700     1.0420    -1.1720 ca         1 RXB      -0.081500
     28 HNAP        -5.4530     1.7880     0.9520 hn         1 RXB       0.339500
     29 HAN         -4.5790    -1.2630    -2.4740 ha         1 RXB       0.147000
     30 HAJ         -2.6050    -2.4500    -3.3470 ha         1 RXB       0.128000
     31 HAM         -0.4040    -2.1300    -2.3370 ha         1 RXB       0.161000
     32 HNAO         0.2100     0.2250     0.4650 hn         1 RXB       0.193000
     33 HBA          2.1330    -0.4620     1.5610 h1         1 RXB       0.081700
     34 HAA          5.8760    -2.5520     1.4440 hc         1 RXB       0.073367
     35 HAAA         5.1210    -4.1920     1.6330 hc         1 RXB       0.073367
     36 HAAB         5.3540    -3.3600     0.0360 hc         1 RXB       0.073367
     37 HAL          1.9880     1.8780     1.7500 ha         1 RXB       0.125500
     38 HAI          2.5320     4.1560     0.9290 ha         1 RXB       0.118500
     39 HAG          3.7370     4.4580    -1.2320 ha         1 RXB       0.116000
     40 HAH          4.4010     2.4650    -2.5750 ha         1 RXB       0.118500
     41 HAK          3.8640     0.1780    -1.7660 ha         1 RXB       0.125500
@<TRIPOS>BOND
     1     1     2 2   
     2     2     3 1   
     3     2     6 1   
     4     3     4 1   
     5     3    28 1   
     6     4     5 2   
     7     4     8 1   
     8     6     7 ar  
     9     6    10 ar  
    10     7     8 1   
    11     7    13 ar  
    12     8     9 2   
    13    10    11 ar  
    14    10    29 1   
    15    11    12 ar  
    16    11    30 1   
    17    12    13 ar  
    18    12    31 1   
    19    13    14 1   
    20    14    15 1   
    21    14    32 1   
    22    15    16 2   
    23    15    17 1   
    24    17    18 1   
    25    17    22 1   
    26    17    33 1   
    27    18    19 1   
    28    19    20 2   
    29    19    21 1   
    30    21    34 1   
    31    21    35 1   
    32    21    36 1   
    33    22    23 ar  
    34    22    27 ar  
    35    23    24 ar  
    36    23    37 1   
    37    24    25 ar  
    38    24    38 1   
    39    25    26 ar  
    40    25    39 1   
    41    26    27 ar  
    42    26    40 1   
    43    27    41 1   
@<TRIPOS>SUBSTRUCTURE
     1 RXB         1 TEMP              0 ****  ****    0 ROOT
