@<TRIPOS>MOLECULE
RXC
   41    43     1     0     0
SMALL
No Charge or Current Charge


@<TRIPOS>ATOM
      1 OAE         -6.0590     1.4690    -0.9860 o          1 RXC      -0.500000
      2 CAX         -5.0380     1.1800    -0.3820 c          1 RXC       0.587600
      3 NAP         -4.9660     1.3860     0.9640 ns         1 RXC      -0.465500
      4 CAW         -3.9260     1.1360     1.8190 c          1 RXC       0.484000
      5 OAD         -4.0250     1.3810     3.0160 o          1 RXC      -0.464000
      6 CAZ         -3.8150     0.5900    -1.0630 ca         1 RXC      -0.087600
      7 CBA         -2.6290     0.2590    -0.3440 ca         1 RXC      -0.224600
      8 CAY         -2.6150     0.5210     1.1590 c          1 RXC       0.522700
      9 OAF         -1.6340     0.2770     1.8620 o          1 RXC      -0.498100
     10 CAM         -3.8690     0.3680    -2.4550 ca         1 RXC      -0.096000
     11 CAI         -2.7730    -0.1690    -3.1360 ca         1 RXC      -0.053000
     12 CAL         -1.6060    -0.4980    -2.4380 ca         1 RXC      -0.136000
     13 CAV         -1.5140    -0.3000    -1.0420 ca         1 RXC       0.061000
     14 NAO         -0.3260    -0.6310    -0.3290 ns         1 RXC      -0.149000
     15 CAS          0.8500    -1.2810    -0.6790 c          1 RXC       0.604100
     16 OAC          1.0760    -1.7460    -1.7930 o          1 RXC      -0.553100
     17 CBB          1.8740    -1.3630     0.4940 c3         1 RXC       0.145600
     18 OAQ          3.0000    -2.2320     0.2030 os         1 RXC      -0.422100
     19 CAR          2.7770    -3.5820     0.1140 c          1 RXC       0.600100
     20 OAB          1.7030    -4.1240     0.3330 o          1 RXC      -0.480000
     21 CAA          4.0540    -4.3390    -0.2170 c3         1 RXC      -0.152100
     22 CAU          2.4260     0.0240     0.8210 ca         1 RXC      -0.098300
     23 CAK          2.0230     0.6930     1.9960 ca         1 RXC      -0.092000
     24 CAH          2.5200     1.9750     2.2900 ca         1 RXC      -0.103000
     25 CAJ          3.4220     2.5990     1.4110 ca         1 RXC      -0.088000
     26 CAT          3.8270     1.9390     0.2400 ca         1 RXC       0.112000
     27 ClAG         4.9550     2.7190    -0.8610 cl         1 RXC      -0.196000
     28 CAN          3.3320     0.6580    -0.0560 ca         1 RXC      -0.066000
     29 HNAP        -5.7960     1.7780     1.3840 hn         1 RXC       0.340500
     30 HAM         -4.7660     0.6160    -3.0200 ha         1 RXC       0.148000
     31 HAI         -2.8280    -0.3290    -4.2110 ha         1 RXC       0.129000
     32 HAL         -0.7800    -0.9010    -3.0120 ha         1 RXC       0.161000
     33 HNAO        -0.3450    -0.3220     0.6350 hn         1 RXC       0.193000
     34 HBB          1.3280    -1.7370     1.3710 h1         1 RXC       0.082700
     35 HAA          4.8300    -4.0530     0.5000 hc         1 RXC       0.074033
     36 HAAA         3.9050    -5.4240    -0.2480 hc         1 RXC       0.074033
     37 HAAB         4.4560    -3.9530    -1.1600 hc         1 RXC       0.074033
     38 HAK          1.3240     0.2220     2.6850 ha         1 RXC       0.125000
     39 HAH          2.2050     2.4850     3.1980 ha         1 RXC       0.125000
     40 HAJ          3.8070     3.5900     1.6370 ha         1 RXC       0.133000
     41 HAN          3.6540     0.1600    -0.9680 ha         1 RXC       0.148000
@<TRIPOS>BOND
     1     1     2 2   
     2     2     3 1   
     3     2     6 1   
     4     3     4 1   
     5     3    29 1   
     6     4     5 2   
     7     4     8 1   
     8     6     7 ar  
     9     6    10 ar  
    10     7     8 1   
    11     7    13 ar  
    12     8     9 2   
    13    10    11 ar  
    14    10    30 1   
    15    11    12 ar  
    16    11    31 1   
    17    12    13 ar  
    18    12    32 1   
    19    13    14 1   
    20    14    15 1   
    21    14    33 1   
    22    15    16 2   
    23    15    17 1   
    24    17    18 1   
    25    17    22 1   
    26    17    34 1   
    27    18    19 1   
    28    19    20 2   
    29    19    21 1   
    30    21    35 1   
    31    21    36 1   
    32    21    37 1   
    33    22    23 ar  
    34    22    28 ar  
    35    23    24 ar  
    36    23    38 1   
    37    24    25 ar  
    38    24    39 1   
    39    25    26 ar  
    40    25    40 1   
    41    26    27 1   
    42    26    28 ar  
    43    28    41 1   
@<TRIPOS>SUBSTRUCTURE
     1 RXC         1 TEMP              0 ****  ****    0 ROOT
