@<TRIPOS>MOLECULE
RXC
   41    43     1     0     0
SMALL
abcg2


@<TRIPOS>ATOM
      1 OAE         -5.9480     1.3340    -1.0570 o          1 RXC      -0.500000
      2 CAX         -4.9650     1.0410    -0.4180 c          1 RXC       0.587600
      3 NAP         -4.9550     1.1940     0.9490 ns         1 RXC      -0.465500
      4 CAW         -3.9260     0.9020     1.7910 c          1 RXC       0.484000
      5 OAD         -3.9840     1.0680     2.9810 o          1 RXC      -0.464000
      6 CAZ         -3.7290     0.5090    -1.0470 ca         1 RXC      -0.087600
      7 CBA         -2.5990     0.1590    -0.2870 ca         1 RXC      -0.224600
      8 CAY         -2.6510     0.3340     1.1590 c          1 RXC       0.522700
      9 OAF         -1.7550     0.0660     1.9310 o          1 RXC      -0.498100
     10 CAM         -3.7310     0.3720    -2.4200 ca         1 RXC      -0.096000
     11 CAI         -2.5960    -0.1200    -3.0510 ca         1 RXC      -0.053000
     12 CAL         -1.4720    -0.4760    -2.3360 ca         1 RXC      -0.136000
     13 CAV         -1.4490    -0.3440    -0.9430 ca         1 RXC       0.061000
     14 NAO         -0.3470    -0.6880    -0.1820 ns         1 RXC      -0.149000
     15 CAS          0.8710    -1.1400    -0.5860 c          1 RXC       0.604100
     16 OAC          1.2060    -1.3740    -1.7240 o          1 RXC      -0.553100
     17 CBB          1.8570    -1.2550     0.5840 c3         1 RXC       0.145600
     18 OAQ          2.8980    -2.1460     0.2490 os         1 RXC      -0.422100
     19 CAR          2.5620    -3.4300     0.0700 c          1 RXC       0.600100
     20 OAB          1.4310    -3.8220     0.1930 o          1 RXC      -0.480000
     21 CAA          3.7530    -4.2750    -0.2470 c3         1 RXC      -0.152100
     22 CAU          2.4610     0.1030     0.8310 ca         1 RXC      -0.098300
     23 CAK          2.0800     0.8400     1.9440 ca         1 RXC      -0.092000
     24 CAH          2.5980     2.1120     2.1470 ca         1 RXC      -0.103000
     25 CAJ          3.5000     2.6550     1.2470 ca         1 RXC      -0.088000
     26 CAT          3.8750     1.9050     0.1420 ca         1 RXC       0.112000
     27 CLAG         5.0060     2.5710    -0.9890 cl         1 RXC      -0.196000
     28 CAN          3.3650     0.6380    -0.0820 ca         1 RXC      -0.066000
     29 HNAP        -5.8030     1.5620     1.3680 hn         1 RXC       0.340500
     30 HAM         -4.6020     0.6440    -2.9980 ha         1 RXC       0.148000
     31 HAI         -2.5890    -0.2310    -4.1270 ha         1 RXC       0.129000
     32 HAL         -0.6130    -0.8580    -2.8600 ha         1 RXC       0.161000
     33 HNAO        -0.4850    -0.5640     0.8170 hn         1 RXC       0.193000
     34 HBB          1.3350    -1.5960     1.4840 h1         1 RXC       0.082700
     35 HAA          4.2690    -4.5270     0.6820 hc         1 RXC       0.074033
     36 HAAA         3.4400    -5.2000    -0.7230 hc         1 RXC       0.074033
     37 HAAB         4.4620    -3.7530    -0.8870 hc         1 RXC       0.074033
     38 HAK          1.3900     0.4210     2.6660 ha         1 RXC       0.125000
     39 HAH          2.3000     2.6830     3.0160 ha         1 RXC       0.125000
     40 HAJ          3.9080     3.6440     1.4060 ha         1 RXC       0.133000
     41 HAN          3.6710     0.0810    -0.9580 ha         1 RXC       0.148000
@<TRIPOS>BOND
     1     1     2 2   
     2     2     3 1   
     3     2     6 1   
     4     3     4 1   
     5     3    29 1   
     6     4     5 2   
     7     4     8 1   
     8     6     7 ar  
     9     6    10 ar  
    10     7     8 1   
    11     7    13 ar  
    12     8     9 2   
    13    10    11 ar  
    14    10    30 1   
    15    11    12 ar  
    16    11    31 1   
    17    12    13 ar  
    18    12    32 1   
    19    13    14 1   
    20    14    15 1   
    21    14    33 1   
    22    15    16 2   
    23    15    17 1   
    24    17    18 1   
    25    17    22 1   
    26    17    34 1   
    27    18    19 1   
    28    19    20 2   
    29    19    21 1   
    30    21    35 1   
    31    21    36 1   
    32    21    37 1   
    33    22    23 ar  
    34    22    28 ar  
    35    23    24 ar  
    36    23    38 1   
    37    24    25 ar  
    38    24    39 1   
    39    25    26 ar  
    40    25    40 1   
    41    26    27 1   
    42    26    28 ar  
    43    28    41 1   
@<TRIPOS>SUBSTRUCTURE
     1 RXC         1 TEMP              0 ****  ****    0 ROOT
