@<TRIPOS>MOLECULE
RXD
   49    51     1     0     0
SMALL
abcg2


@<TRIPOS>ATOM
      1 FAN          9.6580    -2.9900    -0.7270 f          1 RXD      -0.259000
      2 CAN          9.9570    -2.2260     0.3960 c3         1 RXD       0.185600
      3 CAO          9.3360    -0.8640     0.2880 c3         1 RXD       0.129600
      4 OAU          7.9300    -1.0100     0.3400 os         1 RXD      -0.341100
      5 CAZ          7.1550     0.0850     0.2160 ca         1 RXD       0.173100
      6 CAI          7.6410     1.3830     0.0860 ca         1 RXD      -0.222000
      7 CAG          6.7280     2.4220    -0.0330 ca         1 RXD      -0.049000
      8 CAH          5.3580     2.2150    -0.0260 ca         1 RXD      -0.167000
      9 CAL          5.7830    -0.1450     0.2270 ca         1 RXD      -0.207000
     10 CAX          4.8790     0.9080     0.1070 ca         1 RXD       0.016000
     11 NAR          3.5260     0.5620     0.1290 ns         1 RXD      -0.146000
     12 CAV          2.4240     1.3490     0.0070 c          1 RXD       0.609100
     13 OAA          2.4600     2.5570    -0.1380 o          1 RXD      -0.582100
     14 CAP          1.1320     0.5610     0.0680 c3         1 RXD      -0.154400
     15 CAQ         -0.0940     1.4400    -0.0710 c3         1 RXD      -0.147400
     16 CAW         -1.3740     0.6360    -0.0790 c          1 RXD       0.606100
     17 OAB         -1.4040    -0.5750    -0.1630 o          1 RXD      -0.563100
     18 NAS         -2.4970     1.4120     0.0000 ns         1 RXD      -0.150000
     19 CAY         -3.8280     1.0300    -0.0230 ca         1 RXD       0.008000
     20 CAJ         -4.7830     2.0540     0.0390 ca         1 RXD      -0.162000
     21 CAK         -6.1320     1.7740     0.0260 ca         1 RXD      -0.026000
     22 CBD         -6.5740     0.4580    -0.0500 ca         1 RXD      -0.158600
     23 CBE         -5.6270    -0.5640    -0.1130 ca         1 RXD      -0.110600
     24 CBC         -6.0740    -1.9620    -0.1920 c          1 RXD       0.498700
     25 OAE         -5.3340    -2.9080    -0.2560 o          1 RXD      -0.434100
     26 CAM         -4.2660    -0.2920    -0.1010 ca         1 RXD      -0.094000
     27 CBB         -8.0220     0.1830    -0.0600 c          1 RXD       0.597600
     28 OAD         -8.8630     1.0510    -0.0130 o          1 RXD      -0.508000
     29 NAT         -8.4010    -1.1440    -0.1260 ns         1 RXD      -0.469500
     30 CBA         -7.5840    -2.2340    -0.1920 c          1 RXD       0.479000
     31 OAC         -7.9980    -3.3630    -0.2480 o          1 RXD      -0.466000
     32 HAN          9.5980    -2.7570     1.2790 h1         1 RXD       0.054700
     33 HANA        11.0400    -2.1180     0.4670 h1         1 RXD       0.054700
     34 HAO          9.7030    -0.2570     1.1230 h1         1 RXD       0.047200
     35 HAOA         9.6480    -0.3770    -0.6420 h1         1 RXD       0.047200
     36 HAI          8.7000     1.6000     0.0770 ha         1 RXD       0.118000
     37 HAG          7.1000     3.4340    -0.1360 ha         1 RXD       0.114000
     38 HAH          4.6880     3.0510    -0.1210 ha         1 RXD       0.148000
     39 HAL          5.4230    -1.1620     0.3310 ha         1 RXD       0.126000
     40 HNAR         3.3480    -0.4250     0.2410 hn         1 RXD       0.154000
     41 HAP          1.1530    -0.1980    -0.7180 hc         1 RXD       0.079700
     42 HAPA         1.1060     0.0110     1.0140 hc         1 RXD       0.079700
     43 HAQ         -0.1400     2.1790     0.7320 hc         1 RXD       0.080200
     44 HAQA        -0.0560     2.0120    -1.0030 hc         1 RXD       0.080200
     45 HNAS        -2.3420     2.4080     0.0730 hn         1 RXD       0.158000
     46 HAJ         -4.4580     3.0850     0.0980 ha         1 RXD       0.121000
     47 HAK         -6.8430     2.5860     0.0740 ha         1 RXD       0.144000
     48 HAM         -3.5640    -1.1070    -0.1480 ha         1 RXD       0.173000
     49 HNAT        -9.4000    -1.3220    -0.1280 hn         1 RXD       0.336500
@<TRIPOS>BOND
     1     1     2 1   
     2     2     3 1   
     3     2    32 1   
     4     2    33 1   
     5     3     4 1   
     6     3    34 1   
     7     3    35 1   
     8     4     5 1   
     9     5     6 ar  
    10     5     9 ar  
    11     6     7 ar  
    12     6    36 1   
    13     7     8 ar  
    14     7    37 1   
    15     8    10 ar  
    16     8    38 1   
    17     9    10 ar  
    18     9    39 1   
    19    10    11 1   
    20    11    12 1   
    21    11    40 1   
    22    12    13 2   
    23    12    14 1   
    24    14    15 1   
    25    14    41 1   
    26    14    42 1   
    27    15    16 1   
    28    15    43 1   
    29    15    44 1   
    30    16    17 2   
    31    16    18 1   
    32    18    19 1   
    33    18    45 1   
    34    19    20 ar  
    35    19    26 ar  
    36    20    21 ar  
    37    20    46 1   
    38    21    22 ar  
    39    21    47 1   
    40    22    23 ar  
    41    22    27 1   
    42    23    24 1   
    43    23    26 ar  
    44    24    25 2   
    45    24    30 1   
    46    26    48 1   
    47    27    28 2   
    48    27    29 1   
    49    29    30 1   
    50    29    49 1   
    51    30    31 2   
@<TRIPOS>SUBSTRUCTURE
     1 RXD         1 TEMP              0 ****  ****    0 ROOT
