@<TRIPOS>MOLECULE
RXD
   49    51     1     0     0
SMALL
No Charge or Current Charge


@<TRIPOS>ATOM
      1 FAN          9.4820    -2.9160    -1.2180 f          1 RXD      -0.259000
      2 CAN          9.8940    -2.3050    -0.0760 c3         1 RXD       0.185600
      3 CAO          9.3160    -0.8770     0.0200 c3         1 RXD       0.129600
      4 OAU          7.8810    -0.9620     0.1230 os         1 RXD      -0.341100
      5 CAZ          7.0830     0.1580     0.2240 ca         1 RXD       0.173100
      6 CAI          7.6090     1.4660     0.2370 ca         1 RXD      -0.222000
      7 CAG          6.7420     2.5660     0.3420 ca         1 RXD      -0.049000
      8 CAH          5.3540     2.3670     0.4350 ca         1 RXD      -0.167000
      9 CAL          5.6960    -0.0320     0.3180 ca         1 RXD      -0.207000
     10 CAX          4.8170     1.0620     0.4260 ca         1 RXD       0.016000
     11 NAR          3.4270     0.7790     0.5130 ns         1 RXD      -0.146000
     12 CAV          2.3150     1.5940     0.6840 c          1 RXD       0.609100
     13 OAA          2.3610     2.8100     0.8280 o          1 RXD      -0.582100
     14 CAP          0.9770     0.8410     0.7180 c3         1 RXD      -0.154400
     15 CAQ          0.1380     1.0810    -0.5720 c3         1 RXD      -0.147400
     16 CAW         -1.2010     0.3290    -0.5400 c          1 RXD       0.606100
     17 OAB         -1.2480    -0.8870    -0.6840 o          1 RXD      -0.563100
     18 NAS         -2.3140     1.1420    -0.3700 ns         1 RXD      -0.150000
     19 CAY         -3.7050     0.8560    -0.2830 ca         1 RXD       0.008000
     20 CAJ         -4.5840     1.9480    -0.2000 ca         1 RXD      -0.162000
     21 CAK         -5.9710     1.7510    -0.1090 ca         1 RXD      -0.026000
     22 CBD         -6.5110     0.4490    -0.0950 ca         1 RXD      -0.158600
     23 CBE         -5.6340    -0.6610    -0.1730 ca         1 RXD      -0.110600
     24 CBC         -6.1990    -2.0610    -0.1560 c          1 RXD       0.498700
     25 OAE         -5.4730    -3.0530    -0.2200 o          1 RXD      -0.434100
     26 CAM         -4.2390    -0.4500    -0.2650 ca         1 RXD      -0.094000
     27 CBB         -8.0090     0.2620     0.0050 c          1 RXD       0.597600
     28 OAD         -8.7880     1.1990     0.0730 o          1 RXD      -0.508000
     29 NAT         -8.4770    -1.0210     0.0160 ns         1 RXD      -0.469500
     30 CBA         -7.7750    -2.2010    -0.0510 c          1 RXD       0.479000
     31 OAC         -8.3550    -3.2810    -0.0290 o          1 RXD      -0.466000
     32 HAN          9.5690    -2.9020     0.7840 h1         1 RXD       0.054700
     33 HANA        10.9900    -2.2610    -0.0810 h1         1 RXD       0.054700
     34 HAO          9.7370    -0.3830     0.9050 h1         1 RXD       0.047200
     35 HAOA         9.6120    -0.3070    -0.8700 h1         1 RXD       0.047200
     36 HAI          8.6770     1.6480     0.1670 ha         1 RXD       0.118000
     37 HAG          7.1470     3.5770     0.3500 ha         1 RXD       0.114000
     38 HAH          4.7170     3.2420     0.5090 ha         1 RXD       0.148000
     39 HAL          5.3030    -1.0450     0.3060 ha         1 RXD       0.126000
     40 HNAR         3.2070    -0.2040     0.4290 hn         1 RXD       0.154000
     41 HAP          1.1580    -0.2360     0.8240 hc         1 RXD       0.079700
     42 HAPA         0.4020     1.2010     1.5800 hc         1 RXD       0.079700
     43 HAQ         -0.0430     2.1580    -0.6780 hc         1 RXD       0.080200
     44 HAQA         0.7120     0.7210    -1.4340 hc         1 RXD       0.080200
     45 HNAS        -2.0960     2.1260    -0.2880 hn         1 RXD       0.158000
     46 HAJ         -4.1930     2.9640    -0.2090 ha         1 RXD       0.121000
     47 HAK         -6.6250     2.6200    -0.0480 ha         1 RXD       0.144000
     48 HAM         -3.5840    -1.3150    -0.3180 ha         1 RXD       0.173000
     49 HNAT        -9.4800    -1.1110     0.0830 hn         1 RXD       0.336500
@<TRIPOS>BOND
     1     1     2 1   
     2     2     3 1   
     3     2    32 1   
     4     2    33 1   
     5     3     4 1   
     6     3    34 1   
     7     3    35 1   
     8     4     5 1   
     9     5     6 ar  
    10     5     9 ar  
    11     6     7 ar  
    12     6    36 1   
    13     7     8 ar  
    14     7    37 1   
    15     8    10 ar  
    16     8    38 1   
    17     9    10 ar  
    18     9    39 1   
    19    10    11 1   
    20    11    12 1   
    21    11    40 1   
    22    12    13 2   
    23    12    14 1   
    24    14    15 1   
    25    14    41 1   
    26    14    42 1   
    27    15    16 1   
    28    15    43 1   
    29    15    44 1   
    30    16    17 2   
    31    16    18 1   
    32    18    19 1   
    33    18    45 1   
    34    19    20 ar  
    35    19    26 ar  
    36    20    21 ar  
    37    20    46 1   
    38    21    22 ar  
    39    21    47 1   
    40    22    23 ar  
    41    22    27 1   
    42    23    24 1   
    43    23    26 ar  
    44    24    25 2   
    45    24    30 1   
    46    26    48 1   
    47    27    28 2   
    48    27    29 1   
    49    29    30 1   
    50    29    49 1   
    51    30    31 2   
@<TRIPOS>SUBSTRUCTURE
     1 RXD         1 TEMP              0 ****  ****    0 ROOT
