@<TRIPOS>MOLECULE
RXE
   57    59     1     0     0
SMALL
No Charge or Current Charge


@<TRIPOS>ATOM
      1 C02         -6.7480   -33.0200    31.4160 ca         1 RXE       0.116000
      2 C03         -7.4880   -34.2110    31.3230 ca         1 RXE      -0.096000
      3 C04         -6.9110   -35.4340    31.7120 ca         1 RXE      -0.103000
      4 C05         -5.5910   -35.4720    32.1990 ca         1 RXE      -0.070300
      5 C06         -4.8500   -34.2770    32.2890 ca         1 RXE      -0.090000
      6 C07         -5.4240   -33.0540    31.9010 ca         1 RXE       0.120000
      7 C09         -4.9630   -36.7950    32.6150 c3         1 RXE      -0.057100
      8 C10         -4.1740   -37.4450    31.4610 c3         1 RXE       0.103000
      9 C12         -2.4280   -38.8610    32.5980 c          1 RXE       0.600100
     10 C14         -2.0150   -40.3040    32.9040 c3         1 RXE      -0.159400
     11 C15         -0.7730   -40.7410    32.0770 c3         1 RXE      -0.159400
     12 C16         -0.3440   -42.1760    32.4050 c          1 RXE       0.599100
     13 C19         -0.2520   -44.5200    31.4890 c3         1 RXE       0.106000
     14 C20          1.2450   -44.7450    31.2020 c3         1 RXE      -0.102400
     15 C21          1.6500   -46.2380    31.2300 c3         1 RXE      -0.093400
     16 C22          3.1400   -46.5150    30.9150 c3         1 RXE       0.074600
     17 C24          3.2630   -46.8840    28.3990 cc         1 RXE       0.421700
     18 C26          4.0320   -44.9750    27.7530 ca         1 RXE       0.084400
     19 C27          4.0510   -44.9150    29.1280 ca         1 RXE      -0.047200
     20 C28          4.5510   -43.7700    29.8060 ca         1 RXE       0.002100
     21 C30          4.9910   -42.6740    29.0190 ca         1 RXE       0.020100
     22 C32          4.9450   -42.7360    27.6030 ca         1 RXE      -0.013900
     23 C34          4.4690   -43.9000    26.9630 ca         1 RXE       0.057100
     24 N11         -3.5730   -38.7260    31.8460 ns         1 RXE      -0.509900
     25 N18         -0.6140   -43.1030    31.4230 ns         1 RXE      -0.506900
     26 N23          3.5370   -46.1340    29.5430 na         1 RXE      -0.166600
     27 N25          3.5490   -46.1940    27.2820 nd         1 RXE      -0.551100
     28 O13         -1.7990   -37.8980    33.0120 o          1 RXE      -0.602100
     29 O17          0.2160   -42.4700    33.4510 o          1 RXE      -0.597100
     30 Br2          5.6670   -41.0820    29.8730 br         1 RXE      -0.031100
     31 Br3          5.5470   -41.2420    26.5460 br         1 RXE      -0.030100
     32 Br4          4.4100   -44.0350    25.0450 br         1 RXE      -0.019100
     33 Cl1         -7.4990   -31.5030    30.9190 cl         1 RXE      -0.173000
     34 Cl2         -4.4630   -31.5800    32.0300 cl         1 RXE      -0.170000
     35 H1          -8.5080   -34.1870    30.9480 ha         1 RXE       0.132000
     36 H2          -7.4930   -36.3500    31.6330 ha         1 RXE       0.117000
     37 H3          -3.8280   -34.2950    32.6600 ha         1 RXE       0.140000
     38 H4          -4.2940   -36.6390    33.4700 hc         1 RXE       0.058700
     39 H5          -5.7380   -37.4930    32.9550 hc         1 RXE       0.058700
     40 H6          -4.8480   -37.6160    30.6110 h1         1 RXE       0.059700
     41 H7          -3.3810   -36.7630    31.1270 h1         1 RXE       0.059700
     42 H8          -2.8440   -40.9850    32.6770 hc         1 RXE       0.089700
     43 H9          -1.7670   -40.3700    33.9700 hc         1 RXE       0.089700
     44 H10          0.0580   -40.0670    32.3180 hc         1 RXE       0.056700
     45 H11         -1.0180   -40.6560    31.0110 hc         1 RXE       0.056700
     46 H12         -0.8530   -45.0670    30.7490 h1         1 RXE       0.053700
     47 H13         -0.5030   -44.9110    32.4840 h1         1 RXE       0.053700
     48 H14          1.8330   -44.2010    31.9490 hc         1 RXE       0.058700
     49 H15          1.4840   -44.3150    30.2220 hc         1 RXE       0.058700
     50 H16          1.0280   -46.7930    30.5150 hc         1 RXE       0.053200
     51 H17          1.4240   -46.6480    32.2220 hc         1 RXE       0.053200
     52 H18          3.3040   -47.5970    31.0090 h1         1 RXE       0.072700
     53 H19          3.7890   -46.0590    31.6630 h1         1 RXE       0.072700
     54 H20          2.8350   -47.8780    28.4470 h5         1 RXE       0.068800
     55 H21         -4.0290   -39.5810    31.5480 hn         1 RXE       0.311500
     56 H22         -1.0790   -42.7620    30.5900 hn         1 RXE       0.313500
     57 Br1          4.7050   -43.6320    31.7230 br         1 RXE      -0.045100
@<TRIPOS>BOND
     1     1     2 ar  
     2     1     6 ar  
     3     1    33 1   
     4     2     3 ar  
     5     2    35 1   
     6     3     4 ar  
     7     3    36 1   
     8     4     5 ar  
     9     4     7 1   
    10     5     6 ar  
    11     5    37 1   
    12     6    34 1   
    13     7     8 1   
    14     7    38 1   
    15     7    39 1   
    16     8    24 1   
    17     8    40 1   
    18     8    41 1   
    19     9    10 1   
    20     9    24 1   
    21     9    28 2   
    22    10    11 1   
    23    10    42 1   
    24    10    43 1   
    25    11    12 1   
    26    11    44 1   
    27    11    45 1   
    28    12    25 1   
    29    12    29 2   
    30    13    14 1   
    31    13    25 1   
    32    13    46 1   
    33    13    47 1   
    34    14    15 1   
    35    14    48 1   
    36    14    49 1   
    37    15    16 1   
    38    15    50 1   
    39    15    51 1   
    40    16    26 1   
    41    16    52 1   
    42    16    53 1   
    43    17    26 1   
    44    17    27 2   
    45    17    54 1   
    46    18    19 ar  
    47    18    23 ar  
    48    18    27 1   
    49    19    20 ar  
    50    19    26 1   
    51    20    21 ar  
    52    20    57 1   
    53    21    22 ar  
    54    21    30 1   
    55    22    23 ar  
    56    22    31 1   
    57    23    32 1   
    58    24    55 1   
    59    25    56 1   
@<TRIPOS>SUBSTRUCTURE
     1 RXE         1 TEMP              0 ****  ****    0 ROOT
