@<TRIPOS>MOLECULE
RXE
   57    59     1     0     0
SMALL
bcc


@<TRIPOS>ATOM
      1 C02         -6.4660   -33.2270    31.4070 ca         1 RXE       0.024400
      2 C03         -5.9710   -33.8730    30.2840 ca         1 RXE      -0.114000
      3 C04         -5.4220   -35.1390    30.3990 ca         1 RXE      -0.121000
      4 C05         -5.3570   -35.7830    31.6310 ca         1 RXE      -0.070300
      5 C06         -5.8540   -35.1250    32.7520 ca         1 RXE      -0.108000
      6 C07         -6.4070   -33.8590    32.6440 ca         1 RXE       0.028400
      7 C09         -4.7200   -37.1340    31.7710 c3         1 RXE      -0.057100
      8 C10         -3.2200   -37.0060    32.0640 c3         1 RXE       0.103000
      9 C12         -2.6280   -38.9010    33.4830 c          1 RXE       0.667100
     10 C14         -1.9500   -40.2510    33.6090 c3         1 RXE      -0.159400
     11 C15         -1.2980   -40.8470    32.3690 c3         1 RXE      -0.159400
     12 C16         -0.6080   -42.1600    32.6910 c          1 RXE       0.666100
     13 C19         -0.1670   -44.4410    31.8950 c3         1 RXE       0.106000
     14 C20          1.2660   -44.5110    31.3780 c3         1 RXE      -0.102400
     15 C21          1.8220   -45.9210    31.5190 c3         1 RXE      -0.093400
     16 C22          3.2300   -46.1150    30.9750 c3         1 RXE       0.045300
     17 C24          2.8160   -46.7560    28.6480 cc         1 RXE       0.421700
     18 C26          3.4430   -45.1390    27.4650 ca         1 RXE       0.084400
     19 C27          3.7370   -44.7820    28.7960 ca         1 RXE      -0.047200
     20 C28          4.3540   -43.5610    29.0780 ca         1 RXE       0.002100
     21 C30          4.6510   -42.7160    28.0110 ca         1 RXE       0.020100
     22 C32          4.3450   -43.0700    26.6790 ca         1 RXE      -0.013900
     23 C34          3.7390   -44.2840    26.4070 ca         1 RXE       0.057100
     24 N11         -2.5830   -38.2820    32.2920 ns         1 RXE      -0.576900
     25 N18         -0.7660   -43.1300    31.7770 ns         1 RXE      -0.573900
     26 N23          3.3150   -45.8610    29.5380 na         1 RXE      -0.137300
     27 N25          2.8720   -46.3730    27.4090 nd         1 RXE      -0.551100
     28 O13         -3.1800   -38.4040    34.4560 o          1 RXE      -0.602100
     29 O17          0.0480   -42.3100    33.7130 o          1 RXE      -0.597100
     30 BR2          5.4890   -41.0720    28.3420 br         1 RXE      -0.031100
     31 BR3          4.7630   -41.9110    25.2690 br         1 RXE      -0.030100
     32 BR4          3.2960   -44.8380    24.6820 br         1 RXE      -0.019100
     33 CL1         -7.1500   -31.6530    31.2540 cl         1 RXE      -0.081400
     34 CL2         -7.0240   -33.0850    34.0550 cl         1 RXE      -0.078400
     35 H1          -6.0190   -33.3830    29.3210 ha         1 RXE       0.150000
     36 H2          -5.0430   -35.6330    29.5130 ha         1 RXE       0.135000
     37 H3          -5.8160   -35.6050    33.7210 ha         1 RXE       0.158000
     38 H4          -5.1970   -37.6870    32.5830 hc         1 RXE       0.058700
     39 H5          -4.8600   -37.7140    30.8570 hc         1 RXE       0.058700
     40 H6          -2.7190   -36.5250    31.2240 h1         1 RXE       0.059700
     41 H7          -3.0670   -36.3690    32.9360 h1         1 RXE       0.059700
     42 H8          -2.7070   -40.9380    33.9960 hc         1 RXE       0.089700
     43 H9          -1.2080   -40.1480    34.4030 hc         1 RXE       0.089700
     44 H10         -0.5300   -40.1720    31.9780 hc         1 RXE       0.056700
     45 H11         -2.0320   -40.9890    31.5720 hc         1 RXE       0.056700
     46 H12         -0.7950   -45.1380    31.3370 h1         1 RXE       0.053700
     47 H13         -0.2020   -44.7540    32.9400 h1         1 RXE       0.053700
     48 H14          1.8890   -43.8050    31.9320 hc         1 RXE       0.058700
     49 H15          1.2800   -44.1970    30.3300 hc         1 RXE       0.058700
     50 H16          1.1500   -46.6340    31.0310 hc         1 RXE       0.053200
     51 H17          1.8470   -46.2040    32.5750 hc         1 RXE       0.053200
     52 H18          3.5450   -47.1480    31.1290 h1         1 RXE       0.072700
     53 H19          3.9480   -45.4960    31.4990 h1         1 RXE       0.072700
     54 H20          2.4200   -47.7030    28.9870 h5         1 RXE       0.068800
     55 H21         -2.1660   -38.7420    31.5010 hn         1 RXE       0.311500
     56 H22         -1.3040   -42.9320    30.9500 hn         1 RXE       0.313500
     57 BR1          4.8010   -43.0560    30.8240 br         1 RXE      -0.045100
@<TRIPOS>BOND
     1     1     2 ar  
     2     1     6 ar  
     3     1    33 1   
     4     2     3 ar  
     5     2    35 1   
     6     3     4 ar  
     7     3    36 1   
     8     4     5 ar  
     9     4     7 1   
    10     5     6 ar  
    11     5    37 1   
    12     6    34 1   
    13     7     8 1   
    14     7    38 1   
    15     7    39 1   
    16     8    24 1   
    17     8    40 1   
    18     8    41 1   
    19     9    10 1   
    20     9    24 1   
    21     9    28 2   
    22    10    11 1   
    23    10    42 1   
    24    10    43 1   
    25    11    12 1   
    26    11    44 1   
    27    11    45 1   
    28    12    25 1   
    29    12    29 2   
    30    13    14 1   
    31    13    25 1   
    32    13    46 1   
    33    13    47 1   
    34    14    15 1   
    35    14    48 1   
    36    14    49 1   
    37    15    16 1   
    38    15    50 1   
    39    15    51 1   
    40    16    26 1   
    41    16    52 1   
    42    16    53 1   
    43    17    26 1   
    44    17    27 2   
    45    17    54 1   
    46    18    19 ar  
    47    18    23 ar  
    48    18    27 1   
    49    19    20 ar  
    50    19    26 1   
    51    20    21 ar  
    52    20    57 1   
    53    21    22 ar  
    54    21    30 1   
    55    22    23 ar  
    56    22    31 1   
    57    23    32 1   
    58    24    55 1   
    59    25    56 1   
@<TRIPOS>SUBSTRUCTURE
     1 RXE         1 TEMP              0 ****  ****    0 ROOT
