@<TRIPOS>MOLECULE
RXF
   46    47     1     0     0
SMALL
abcg2


@<TRIPOS>ATOM
      1 C1          -1.8620   -21.8400     3.7550 c3         1 RXF       0.177600
      2 C10          3.6590   -23.9970     9.7860 ca         1 RXF      -0.070000
      3 C11          3.2190   -25.0000    10.6370 ca         1 RXF      -0.082000
      4 C12          2.1990   -25.8620    10.2530 ca         1 RXF      -0.039600
      5 C13          1.6740   -26.8390    11.2530 c          1 RXF       0.595700
      6 C14          2.2720   -28.3190    12.9730 c3         1 RXF       0.150900
      7 C2          -1.5450   -23.8540     2.5370 ca         1 RXF       0.435300
      8 C3          -1.2660   -25.7350     1.3710 ca         1 RXF       0.447900
      9 C4          -1.7300   -25.8300    -1.0300 c3         1 RXF       0.229100
     10 C5          -0.8140   -25.6800     3.5610 ca         1 RXF       0.348900
     11 C6          -0.3110   -25.9340     5.9710 c          1 RXF       0.696100
     12 C7           1.6370   -25.7150     8.9790 ca         1 RXF      -0.221500
     13 C8           2.0870   -24.7240     8.1230 ca         1 RXF      -0.027000
     14 C9           3.0910   -23.8570     8.5330 ca         1 RXF      -0.106000
     15 O3          -0.9150   -26.4310     8.8450 o          1 RXF      -0.503500
     16 O2           0.8750   -28.2010     8.7370 o          1 RXF      -0.503500
     17 N           -1.6310   -24.4500     1.3630 nb         1 RXF      -0.314000
     18 C           -2.3450   -20.4440     3.4480 c3         1 RXF      -0.100100
     19 O           -1.9040   -22.5880     2.5310 os         1 RXF      -0.439300
     20 N1          -1.3160   -26.4090     0.2250 nu         1 RXF      -0.911100
     21 N2          -0.8510   -26.4020     2.4610 nb         1 RXF      -0.369000
     22 N3          -0.3610   -26.3670     4.6670 ns         1 RXF      -0.327900
     23 N4           0.4550   -26.7940     6.7560 ns         1 RXF      -0.619300
     24 N5          -1.1410   -24.4010     3.6730 nb         1 RXF      -0.339000
     25 O1          -0.8390   -24.9490     6.4130 o          1 RXF      -0.517100
     26 O4           0.5010   -27.0290    11.4410 o          1 RXF      -0.462000
     27 O5           2.6480   -27.4210    11.9250 os         1 RXF      -0.426100
     28 S            0.3930   -26.8710     8.4240 sy         1 RXF       1.193300
     29 H1          -2.4980   -22.3190     4.5020 h1         1 RXF       0.058200
     30 H2          -0.8430   -21.8260     4.1440 h1         1 RXF       0.058200
     31 H3           4.4480   -23.3300    10.1070 ha         1 RXF       0.123000
     32 H4           3.6640   -25.0990    11.6170 ha         1 RXF       0.131000
     33 H5           3.2010   -28.6780    13.4030 h1         1 RXF       0.053700
     34 H6           1.6870   -27.8100    13.7390 h1         1 RXF       0.053700
     35 H7           1.7020   -29.1620    12.5830 h1         1 RXF       0.053700
     36 H8          -1.6740   -26.6020    -1.7920 h1         1 RXF       0.047033
     37 H9          -2.7560   -25.4630    -0.9860 h1         1 RXF       0.047033
     38 H10         -1.0850   -25.0040    -1.3280 h1         1 RXF       0.047033
     39 H11          1.6860   -24.6140     7.1280 ha         1 RXF       0.131000
     40 H12          3.4310   -23.0830     7.8590 ha         1 RXF       0.123000
     41 H13         -2.3250   -19.8520     4.3630 hc         1 RXF       0.048700
     42 H14         -1.7070   -19.9490     2.7160 hc         1 RXF       0.048700
     43 H15         -3.3690   -20.4460     3.0740 hc         1 RXF       0.048700
     44 H16         -1.0340   -27.3740     0.2500 hn         1 RXF       0.512000
     45 H17         -0.0540   -27.3070     4.4580 hn         1 RXF       0.176000
     46 H18          1.0730   -27.4770     6.3300 hn         1 RXF       0.341500
@<TRIPOS>BOND
     1     1    18 1   
     2     1    19 1   
     3     1    29 1   
     4     1    30 1   
     5     2     3 ar  
     6     2    14 ar  
     7     2    31 1   
     8     3     4 ar  
     9     3    32 1   
    10     4     5 1   
    11     4    12 ar  
    12     5    26 2   
    13     5    27 1   
    14     6    27 1   
    15     6    33 1   
    16     6    34 1   
    17     6    35 1   
    18     7    17 ar  
    19     7    19 1   
    20     7    24 ar  
    21     8    17 ar  
    22     8    20 1   
    23     8    21 ar  
    24     9    20 1   
    25     9    36 1   
    26     9    37 1   
    27     9    38 1   
    28    10    21 ar  
    29    10    22 1   
    30    10    24 ar  
    31    11    22 1   
    32    11    23 1   
    33    11    25 2   
    34    12    13 ar  
    35    12    28 1   
    36    13    14 ar  
    37    13    39 1   
    38    14    40 1   
    39    15    28 2   
    40    16    28 2   
    41    18    41 1   
    42    18    42 1   
    43    18    43 1   
    44    20    44 1   
    45    22    45 1   
    46    23    28 1   
    47    23    46 1   
@<TRIPOS>SUBSTRUCTURE
     1 RXF         1 TEMP              0 ****  ****    0 ROOT
