@<TRIPOS>MOLECULE
RXF
   46    47     1     0     0
SMALL
No Charge or Current Charge


@<TRIPOS>ATOM
      1 C1          -1.6730   -21.6250     3.6500 c3         1 RXF       0.177600
      2 C10          3.3610   -23.8150     9.9750 ca         1 RXF      -0.070000
      3 C11          3.0080   -24.8950    10.7960 ca         1 RXF      -0.082000
      4 C12          2.0880   -25.8750    10.3580 ca         1 RXF      -0.039600
      5 C13          1.7320   -26.9970    11.3150 c          1 RXF       0.595700
      6 C14          2.5980   -28.4790    13.0120 c3         1 RXF       0.150900
      7 C2          -1.4780   -23.7700     2.4710 ca         1 RXF       0.435300
      8 C3          -1.3250   -25.7420     1.3520 ca         1 RXF       0.447900
      9 C4          -1.9840   -26.0350    -1.1050 c3         1 RXF       0.229100
     10 C5          -0.7150   -25.6430     3.5060 ca         1 RXF       0.348900
     11 C6          -0.3390   -26.0440     5.9590 c          1 RXF       0.696100
     12 C7           1.5270   -25.7630     9.0480 ca         1 RXF      -0.221500
     13 C8           1.8920   -24.6630     8.2340 ca         1 RXF      -0.027000
     14 C9           2.8000   -23.6980     8.6970 ca         1 RXF      -0.106000
     15 O3          -0.9590   -26.7140     8.8550 o          1 RXF      -0.503500
     16 O2           0.9900   -28.3460     8.6690 o          1 RXF      -0.503500
     17 N           -1.6600   -24.4430     1.3180 nb         1 RXF      -0.314000
     18 C           -2.1310   -20.2010     3.2920 c3         1 RXF      -0.100100
     19 O           -1.8080   -22.4330     2.4650 os         1 RXF      -0.439300
     20 N1          -1.4780   -26.4920     0.2040 nu         1 RXF      -0.911100
     21 N2          -0.8420   -26.4020     2.4090 nb         1 RXF      -0.369000
     22 N3          -0.1670   -26.2930     4.6210 ns         1 RXF      -0.327900
     23 N4           0.3900   -26.8920     6.7240 ns         1 RXF      -0.619300
     24 N5          -0.9950   -24.3330     3.6010 nb         1 RXF      -0.339000
     25 O1          -1.0490   -25.1620     6.4100 o          1 RXF      -0.517100
     26 O4           0.5800   -27.3320    11.5580 o          1 RXF      -0.462000
     27 O5           2.8160   -27.4600    12.0190 os         1 RXF      -0.426100
     28 S            0.3970   -27.0330     8.3950 sy         1 RXF       1.193300
     29 H1          -2.2970   -22.0150     4.4650 h1         1 RXF       0.058200
     30 H2          -0.6290   -21.5980     3.9910 h1         1 RXF       0.058200
     31 H3           4.0660   -23.0670    10.3310 ha         1 RXF       0.123000
     32 H4           3.4440   -24.9630    11.7910 ha         1 RXF       0.131000
     33 H5           3.5460   -28.7590    13.4870 h1         1 RXF       0.053700
     34 H6           1.9170   -28.1240    13.7970 h1         1 RXF       0.053700
     35 H7           2.1660   -29.3810    12.5590 h1         1 RXF       0.053700
     36 H8          -1.9910   -26.8630    -1.8260 h1         1 RXF       0.047033
     37 H9          -3.0090   -25.6520    -1.0100 h1         1 RXF       0.047033
     38 H10         -1.3490   -25.2330    -1.5060 h1         1 RXF       0.047033
     39 H11          1.4880   -24.5420     7.2330 ha         1 RXF       0.131000
     40 H12          3.0720   -22.8590     8.0600 ha         1 RXF       0.123000
     41 H13         -2.0460   -19.5450     4.1660 hc         1 RXF       0.048700
     42 H14         -1.5100   -19.7860     2.4890 hc         1 RXF       0.048700
     43 H15         -3.1770   -20.2030     2.9630 hc         1 RXF       0.048700
     44 H16         -1.2050   -27.4730     0.2930 hn         1 RXF       0.512000
     45 H17          0.4110   -27.0890     4.3930 hn         1 RXF       0.176000
     46 H18          0.9520   -27.6050     6.2920 hn         1 RXF       0.341500
@<TRIPOS>BOND
     1     1    18 1   
     2     1    19 1   
     3     1    29 1   
     4     1    30 1   
     5     2     3 ar  
     6     2    14 ar  
     7     2    31 1   
     8     3     4 ar  
     9     3    32 1   
    10     4     5 1   
    11     4    12 ar  
    12     5    26 2   
    13     5    27 1   
    14     6    27 1   
    15     6    33 1   
    16     6    34 1   
    17     6    35 1   
    18     7    17 ar  
    19     7    19 1   
    20     7    24 ar  
    21     8    17 ar  
    22     8    20 1   
    23     8    21 ar  
    24     9    20 1   
    25     9    36 1   
    26     9    37 1   
    27     9    38 1   
    28    10    21 ar  
    29    10    22 1   
    30    10    24 ar  
    31    11    22 1   
    32    11    23 1   
    33    11    25 2   
    34    12    13 ar  
    35    12    28 1   
    36    13    14 ar  
    37    13    39 1   
    38    14    40 1   
    39    15    28 2   
    40    16    28 2   
    41    18    41 1   
    42    18    42 1   
    43    18    43 1   
    44    20    44 1   
    45    22    45 1   
    46    23    28 1   
    47    23    46 1   
@<TRIPOS>SUBSTRUCTURE
     1 RXF         1 TEMP              0 ****  ****    0 ROOT
