@<TRIPOS>MOLECULE
RXG
   26    27     1     0     0
SMALL
No Charge or Current Charge


@<TRIPOS>ATOM
      1 C4          13.5200   -18.5390   -15.6990 c3         1 RXG       0.084600
      2 C5          14.7540   -19.4610   -15.5250 c          1 RXG       0.534900
      3 C6          15.9980   -18.2440   -17.3560 cc         1 RXG      -0.171000
      4 C7          17.2440   -18.3210   -17.9340 cd         1 RXG      -0.162000
      5 C8          17.9420   -19.3840   -17.2740 cd         1 RXG      -0.162000
      6 C10         13.6590   -17.7900   -12.8530 ca         1 RXG      -0.134000
      7 O1          14.7730   -20.3710   -14.6980 o          1 RXG      -0.505100
      8 N           15.8780   -19.2080   -16.3600 n          1 RXG       0.014200
      9 C9          17.0830   -19.8950   -16.3310 cc         1 RXG      -0.171000
     10 O           12.4620   -18.8060   -14.7430 os         1 RXG      -0.318100
     11 C3          12.5640   -18.5010   -13.3990 ca         1 RXG       0.120100
     12 C2          11.5160   -18.9140   -12.5560 ca         1 RXG      -0.134000
     13 C1          11.5560   -18.6310   -11.1780 ca         1 RXG      -0.115000
     14 C11         13.6970   -17.5090   -11.4740 ca         1 RXG      -0.115000
     15 C           12.6480   -17.9300   -10.6420 ca         1 RXG       0.141000
     16 F           12.6870   -17.6580    -9.3190 f          1 RXG      -0.179000
     17 H1          13.8480   -17.4940   -15.6400 h1         1 RXG       0.081700
     18 H2          13.1480   -18.7040   -16.7180 h1         1 RXG       0.081700
     19 H4          17.6220   -17.6960   -18.7380 ha         1 RXG       0.137500
     20 H5          18.9540   -19.7230   -17.4790 ha         1 RXG       0.137500
     21 H6          14.4810   -17.4490   -13.4740 ha         1 RXG       0.125500
     22 H7          17.1940   -20.7000   -15.6130 h4         1 RXG       0.156000
     23 H8          10.6720   -19.4570   -12.9730 ha         1 RXG       0.125500
     24 H9          10.7460   -18.9530   -10.5280 ha         1 RXG       0.133500
     25 H10         14.5370   -16.9640   -11.0500 ha         1 RXG       0.133500
     26 H3          15.1620   -17.5870   -17.5580 h4         1 RXG       0.156000
@<TRIPOS>BOND
     1     1     2 1   
     2     1    10 1   
     3     1    17 1   
     4     1    18 1   
     5     2     7 2   
     6     2     8 1   
     7     3     4 2   
     8     3     8 1   
     9     3    26 1   
    10     4     5 1   
    11     4    19 1   
    12     5     9 2   
    13     5    20 1   
    14     6    11 ar  
    15     6    14 ar  
    16     6    21 1   
    17     8     9 1   
    18     9    22 1   
    19    10    11 1   
    20    11    12 ar  
    21    12    13 ar  
    22    12    23 1   
    23    13    15 ar  
    24    13    24 1   
    25    14    15 ar  
    26    14    25 1   
    27    15    16 1   
@<TRIPOS>SUBSTRUCTURE
     1 RXG         1 TEMP              0 ****  ****    0 ROOT
