@<TRIPOS>MOLECULE
RXG
   26    27     1     0     0
SMALL
bcc


@<TRIPOS>ATOM
      1 C4          13.5380   -18.5510   -15.6550 c3         1 RXG       0.061400
      2 C5          14.7380   -19.4700   -15.4820 c          1 RXG       0.534900
      3 C6          15.9440   -18.1830   -17.2290 cc         1 RXG      -0.138300
      4 C7          17.1680   -18.2820   -17.8070 cd         1 RXG      -0.180000
      5 C8          17.8380   -19.3960   -17.2090 cd         1 RXG      -0.180000
      6 C10         13.7050   -17.8010   -12.9240 ca         1 RXG      -0.152000
      7 O1          14.7410   -20.3880   -14.7050 o          1 RXG      -0.505100
      8 N           15.8290   -19.1970   -16.2920 n          1 RXG      -0.087200
      9 C9          16.9990   -19.9370   -16.2890 cc         1 RXG      -0.138300
     10 O           12.5220   -18.8810   -14.7590 os         1 RXG      -0.294900
     11 C3          12.6480   -18.5350   -13.4520 ca         1 RXG       0.120100
     12 C2          11.6120   -18.9490   -12.6170 ca         1 RXG      -0.152000
     13 C1          11.6300   -18.6370   -11.2680 ca         1 RXG      -0.133000
     14 C11         13.7230   -17.4860   -11.5700 ca         1 RXG      -0.133000
     15 C           12.6890   -17.9070   -10.7630 ca         1 RXG       0.105900
     16 F           12.7100   -17.6020    -9.4530 f          1 RXG      -0.143900
     17 H1          13.8340   -17.4980   -15.5840 h1         1 RXG       0.081700
     18 H2          13.1270   -18.6970   -16.6570 h1         1 RXG       0.081700
     19 H4          17.5550   -17.6340   -18.5760 ha         1 RXG       0.155500
     20 H5          18.8300   -19.7490   -17.4390 ha         1 RXG       0.155500
     21 H6          14.5300   -17.4560   -13.5310 ha         1 RXG       0.143500
     22 H7          17.1230   -20.7800   -15.6310 h4         1 RXG       0.174000
     23 H8          10.7880   -19.5180   -13.0270 ha         1 RXG       0.143500
     24 H9          10.8250   -18.9610   -10.6210 ha         1 RXG       0.151500
     25 H10         14.5460   -16.9170   -11.1590 ha         1 RXG       0.151500
     26 H3          15.1520   -17.4770   -17.4140 h4         1 RXG       0.174000
@<TRIPOS>BOND
     1     1     2 1   
     2     1    10 1   
     3     1    17 1   
     4     1    18 1   
     5     2     7 2   
     6     2     8 1   
     7     3     4 2   
     8     3     8 1   
     9     3    26 1   
    10     4     5 1   
    11     4    19 1   
    12     5     9 2   
    13     5    20 1   
    14     6    11 ar  
    15     6    14 ar  
    16     6    21 1   
    17     8     9 1   
    18     9    22 1   
    19    10    11 1   
    20    11    12 ar  
    21    12    13 ar  
    22    12    23 1   
    23    13    15 ar  
    24    13    24 1   
    25    14    15 ar  
    26    14    25 1   
    27    15    16 1   
@<TRIPOS>SUBSTRUCTURE
     1 RXG         1 TEMP              0 ****  ****    0 ROOT
