@<TRIPOS>MOLECULE
RXH
   34    35     1     0     0
SMALL
abcg2


@<TRIPOS>ATOM
      1 OXT         25.9310    10.8650   -25.9660 os         1 RXH      -0.441100
      2 O           24.6410    12.1550   -24.6820 o          1 RXH      -0.485000
      3 C01         25.0460     9.7600   -25.7890 c3         1 RXH       0.151900
      4 C1          31.2710    12.0280   -21.0100 ca         1 RXH       0.148100
      5 C2          30.1600    12.6960   -20.4320 ca         1 RXH      -0.129000
      6 O2          32.2850    11.7750   -20.1640 os         1 RXH      -0.339100
      7 C3          29.0720    13.0110   -21.1900 ca         1 RXH      -0.064000
      8 C4          29.0210    12.6870   -22.5680 ca         1 RXH      -0.071000
      9 C5          30.1310    12.0190   -23.1410 ca         1 RXH       0.008000
     10 C6          31.2530    11.6940   -22.3410 ca         1 RXH      -0.207000
     11 C7          27.9100    13.0150   -23.3750 ca         1 RXH      -0.068000
     12 C8          27.8850    12.7100   -24.7130 ca         1 RXH      -0.098300
     13 C10         26.1490    14.4590   -25.3590 c3         1 RXH      -0.079100
     14 C11         28.9930    12.0380   -25.2760 ca         1 RXH      -0.082000
     15 C12         33.4290    11.1160   -20.6670 c3         1 RXH       0.146900
     16 C13         30.0810    11.7020   -24.5170 ca         1 RXH      -0.114000
     17 C14         26.6930    13.0560   -25.5860 c3         1 RXH      -0.066400
     18 C15         25.6280    12.0020   -25.3550 c          1 RXH       0.593100
     19 H1          25.4750     8.9390   -26.3560 h1         1 RXH       0.047700
     20 H4          24.9730     9.4730   -24.7400 h1         1 RXH       0.047700
     21 H5          24.0500     9.9800   -26.1710 h1         1 RXH       0.047700
     22 H2          30.1910    12.9510   -19.3800 ha         1 RXH       0.128000
     23 H3          28.2310    13.5230   -20.7380 ha         1 RXH       0.118000
     24 H6          32.0840    11.1850   -22.8120 ha         1 RXH       0.118000
     25 H7          27.0760    13.5250   -22.9070 ha         1 RXH       0.120000
     26 H101        26.9330    15.1930   -25.5410 hc         1 RXH       0.046700
     27 H102        25.3280    14.6700   -26.0440 hc         1 RXH       0.046700
     28 H103        25.7800    14.6050   -24.3450 hc         1 RXH       0.046700
     29 H11         28.9810    11.7910   -26.3300 ha         1 RXH       0.115000
     30 H121        34.1190    11.0130   -19.8330 h1         1 RXH       0.041367
     31 H122        33.1900    10.1200   -21.0510 h1         1 RXH       0.041367
     32 H123        33.9150    11.6910   -21.4590 h1         1 RXH       0.041367
     33 H13         30.9220    11.1920   -24.9720 ha         1 RXH       0.113000
     34 H14         27.0140    12.9740   -26.6280 hc         1 RXH       0.076700
@<TRIPOS>BOND
     1     1     3 1   
     2     1    18 1   
     3     2    18 2   
     4     3    19 1   
     5     3    20 1   
     6     3    21 1   
     7     4     5 ar  
     8     4     6 1   
     9     4    10 ar  
    10     5     7 ar  
    11     5    22 1   
    12     6    15 1   
    13     7     8 ar  
    14     7    23 1   
    15     8     9 ar  
    16     8    11 ar  
    17     9    10 ar  
    18     9    16 ar  
    19    10    24 1   
    20    11    12 ar  
    21    11    25 1   
    22    12    14 ar  
    23    12    17 1   
    24    13    17 1   
    25    13    26 1   
    26    13    27 1   
    27    13    28 1   
    28    14    16 ar  
    29    14    29 1   
    30    15    30 1   
    31    15    31 1   
    32    15    32 1   
    33    16    33 1   
    34    17    18 1   
    35    17    34 1   
@<TRIPOS>SUBSTRUCTURE
     1 RXH         1 TEMP              0 ****  ****    0 ROOT
