@<TRIPOS>MOLECULE
RXH
   34    35     1     0     0
SMALL
No Charge or Current Charge


@<TRIPOS>ATOM
      1 OXT         25.3340    11.0120   -26.3730 os         1 RXH      -0.441100
      2 O           25.0940    11.6500   -24.1810 o          1 RXH      -0.485000
      3 C01         24.2990    10.0190   -26.2450 c3         1 RXH       0.151900
      4 C1          31.3610    12.1570   -20.8710 ca         1 RXH       0.148100
      5 C2          30.2020    12.7260   -20.3200 ca         1 RXH      -0.129000
      6 O2          32.4380    11.9490   -20.0330 os         1 RXH      -0.339100
      7 C3          29.0720    12.9630   -21.1220 ca         1 RXH      -0.064000
      8 C4          29.0990    12.6310   -22.4890 ca         1 RXH      -0.071000
      9 C5          30.2610    12.0590   -23.0490 ca         1 RXH       0.008000
     10 C6          31.3900    11.8220   -22.2420 ca         1 RXH      -0.207000
     11 C7          27.9710    12.8660   -23.2980 ca         1 RXH      -0.068000
     12 C8          27.9920    12.5360   -24.6700 ca         1 RXH      -0.098300
     13 C10         26.2450    14.2360   -25.4780 c3         1 RXH      -0.079100
     14 C11         29.1560    11.9600   -25.2190 ca         1 RXH      -0.082000
     15 C12         33.6720    11.3730   -20.4970 c3         1 RXH       0.146900
     16 C13         30.2830    11.7250   -24.4140 ca         1 RXH      -0.114000
     17 C14         26.7690    12.7820   -25.5630 c3         1 RXH      -0.066400
     18 C15         25.6470    11.7640   -25.2680 c          1 RXH       0.593100
     19 H1          24.1530     9.4950   -27.1980 h1         1 RXH       0.047700
     20 H4          24.5630     9.2740   -25.4840 h1         1 RXH       0.047700
     21 H5          23.3440    10.4830   -25.9630 h1         1 RXH       0.047700
     22 H2          30.1790    12.9840   -19.2640 ha         1 RXH       0.128000
     23 H3          28.1810    13.4040   -20.6800 ha         1 RXH       0.118000
     24 H6          32.2740    11.3810   -22.6920 ha         1 RXH       0.118000
     25 H7          27.0770    13.2990   -22.8560 ha         1 RXH       0.120000
     26 H101        27.0500    14.9480   -25.6970 hc         1 RXH       0.046700
     27 H102        25.4410    14.3970   -26.2070 hc         1 RXH       0.046700
     28 H103        25.8470    14.4630   -24.4820 hc         1 RXH       0.046700
     29 H11         29.1910    11.6930   -26.2730 ha         1 RXH       0.115000
     30 H121        34.3900    11.2970   -19.6710 h1         1 RXH       0.041367
     31 H122        33.5060    10.3640   -20.8960 h1         1 RXH       0.041367
     32 H123        34.1220    11.9940   -21.2810 h1         1 RXH       0.041367
     33 H13         31.1730    11.2810   -24.8540 ha         1 RXH       0.113000
     34 H14         27.0640    12.6290   -26.6080 hc         1 RXH       0.076700
@<TRIPOS>BOND
     1     1     3 1   
     2     1    18 1   
     3     2    18 2   
     4     3    19 1   
     5     3    20 1   
     6     3    21 1   
     7     4     5 ar  
     8     4     6 1   
     9     4    10 ar  
    10     5     7 ar  
    11     5    22 1   
    12     6    15 1   
    13     7     8 ar  
    14     7    23 1   
    15     8     9 ar  
    16     8    11 ar  
    17     9    10 ar  
    18     9    16 ar  
    19    10    24 1   
    20    11    12 ar  
    21    11    25 1   
    22    12    14 ar  
    23    12    17 1   
    24    13    17 1   
    25    13    26 1   
    26    13    27 1   
    27    13    28 1   
    28    14    16 ar  
    29    14    29 1   
    30    15    30 1   
    31    15    31 1   
    32    15    32 1   
    33    16    33 1   
    34    17    18 1   
    35    17    34 1   
@<TRIPOS>SUBSTRUCTURE
     1 RXH         1 TEMP              0 ****  ****    0 ROOT
