@<TRIPOS>MOLECULE
RXJ
   30    31     1     0     0
SMALL
No Charge or Current Charge


@<TRIPOS>ATOM
      1 N1          12.8520   -19.5510   -13.8760 nh         1 RXJ      -0.800400
      2 C4          11.8850   -21.4100   -15.3250 c6         1 RXJ       0.150300
      3 C5          12.6700   -18.5080   -12.9400 ca         1 RXJ       0.359000
      4 C6          11.6280   -18.5890   -12.0000 ca         1 RXJ      -0.199500
      5 C7          11.4260   -17.5660   -11.0580 ca         1 RXJ      -0.024500
      6 C8          12.2730   -16.4430   -11.0470 ca         1 RXJ      -0.085000
      7 C10         13.3200   -16.3530   -11.9830 ca         1 RXJ      -0.024500
      8 N           13.2070   -21.6310   -15.9890 n3         1 RXJ      -0.707600
      9 C           13.3440   -22.9910   -16.5510 c3         1 RXJ       0.150100
     10 C1          14.3120   -21.2830   -15.0430 c6         1 RXJ       0.150300
     11 C11         13.5160   -17.3820   -12.9220 ca         1 RXJ      -0.199500
     12 C2          14.1950   -19.8280   -14.4810 c6         1 RXJ       0.212800
     13 C3          11.7190   -19.9580   -14.7690 c6         1 RXJ       0.212800
     14 C9          12.0720   -15.3940   -10.0860 cg         1 RXJ       0.338000
     15 N2          11.9110   -14.5350    -9.3120 n1         1 RXJ      -0.472000
     16 H1          11.0670   -21.6070   -16.0330 h1         1 RXJ       0.042200
     17 H2          11.7620   -22.1160   -14.4900 h1         1 RXJ       0.042200
     18 H3          10.9750   -19.4570   -11.9900 ha         1 RXJ       0.116000
     19 H4          10.6150   -17.6490   -10.3370 ha         1 RXJ       0.120000
     20 H5          13.9820   -15.4880   -11.9860 ha         1 RXJ       0.120000
     21 H7          12.5440   -23.1940   -17.2760 h1         1 RXJ       0.034367
     22 H8          14.3050   -23.1010   -17.0710 h1         1 RXJ       0.034367
     23 H9          13.2920   -23.7510   -15.7600 h1         1 RXJ       0.034367
     24 H10         14.3120   -21.9820   -14.1930 h1         1 RXJ       0.042200
     25 H11         15.2860   -21.3860   -15.5410 h1         1 RXJ       0.042200
     26 H12         14.3230   -17.2880   -13.6420 ha         1 RXJ       0.116000
     27 H13         14.9880   -19.6850   -13.7320 h1         1 RXJ       0.049700
     28 H14         14.3870   -19.1200   -15.3010 h1         1 RXJ       0.049700
     29 H15         11.6540   -19.2630   -15.6190 h1         1 RXJ       0.049700
     30 H16         10.7590   -19.9030   -14.2360 h1         1 RXJ       0.049700
@<TRIPOS>BOND
     1     1     3 1   
     2     1    12 1   
     3     1    13 1   
     4     2     8 1   
     5     2    13 1   
     6     2    16 1   
     7     2    17 1   
     8     3     4 ar  
     9     3    11 ar  
    10     4     5 ar  
    11     4    18 1   
    12     5     6 ar  
    13     5    19 1   
    14     6     7 ar  
    15     6    14 1   
    16     7    11 ar  
    17     7    20 1   
    18     8     9 1   
    19     8    10 1   
    20     9    21 1   
    21     9    22 1   
    22     9    23 1   
    23    10    12 1   
    24    10    24 1   
    25    10    25 1   
    26    11    26 1   
    27    12    27 1   
    28    12    28 1   
    29    13    29 1   
    30    13    30 1   
    31    14    15 3   
@<TRIPOS>SUBSTRUCTURE
     1 RXJ         1 TEMP              0 ****  ****    0 ROOT
