@<TRIPOS>MOLECULE
RXJ
   30    31     1     0     0
SMALL
bcc


@<TRIPOS>ATOM
      1 N1          12.8220   -19.5820   -13.8890 nh         1 RXJ      -0.662000
      2 C4          11.9780   -21.5700   -15.0690 c6         1 RXJ       0.150300
      3 C5          12.6520   -18.5540   -13.0030 ca         1 RXJ       0.220600
      4 C6          11.4080   -18.3130   -12.3750 ca         1 RXJ      -0.217500
      5 C7          11.2510   -17.3120   -11.4440 ca         1 RXJ      -0.042500
      6 C8          12.3190   -16.4840   -11.0940 ca         1 RXJ      -0.085000
      7 C10         13.5500   -16.6890   -11.7190 ca         1 RXJ      -0.042500
      8 N           13.1330   -21.5590   -15.9370 n3         1 RXJ      -0.707600
      9 C           13.3760   -22.8600   -16.5200 c3         1 RXJ       0.150100
     10 C1          14.2730   -21.0880   -15.1850 c6         1 RXJ       0.150300
     11 C11         13.7120   -17.6880   -12.6530 ca         1 RXJ      -0.217500
     12 C2          14.0480   -19.6810   -14.6630 c6         1 RXJ       0.212800
     13 C3          11.6700   -20.1810   -14.5470 c6         1 RXJ       0.212800
     14 C9          12.1540   -15.4520   -10.1330 cg         1 RXJ       0.248800
     15 N2          12.0160   -14.6140    -9.3510 n1         1 RXJ      -0.382800
     16 H1          11.1050   -21.9210   -15.6240 h1         1 RXJ       0.042200
     17 H2          12.1170   -22.2590   -14.2170 h1         1 RXJ       0.042200
     18 H3          10.5430   -18.9160   -12.6010 ha         1 RXJ       0.134000
     19 H4          10.2820   -17.1710   -10.9830 ha         1 RXJ       0.138000
     20 H5          14.3920   -16.0520   -11.4800 ha         1 RXJ       0.138000
     21 H7          12.5160   -23.1690   -17.1150 h1         1 RXJ       0.034367
     22 H8          14.2430   -22.8160   -17.1800 h1         1 RXJ       0.034367
     23 H9          13.5640   -23.6410   -15.7670 h1         1 RXJ       0.034367
     24 H10         14.5050   -21.7570   -14.3370 h1         1 RXJ       0.042200
     25 H11         15.1550   -21.0690   -15.8290 h1         1 RXJ       0.042200
     26 H12         14.6840   -17.7800   -13.1110 ha         1 RXJ       0.134000
     27 H13         14.9050   -19.4370   -14.0390 h1         1 RXJ       0.049700
     28 H14         14.0340   -18.9720   -15.5010 h1         1 RXJ       0.049700
     29 H15         11.3310   -19.5440   -15.3730 h1         1 RXJ       0.049700
     30 H16         10.8430   -20.2810   -13.8490 h1         1 RXJ       0.049700
@<TRIPOS>BOND
     1     1     3 1   
     2     1    12 1   
     3     1    13 1   
     4     2     8 1   
     5     2    13 1   
     6     2    16 1   
     7     2    17 1   
     8     3     4 ar  
     9     3    11 ar  
    10     4     5 ar  
    11     4    18 1   
    12     5     6 ar  
    13     5    19 1   
    14     6     7 ar  
    15     6    14 1   
    16     7    11 ar  
    17     7    20 1   
    18     8     9 1   
    19     8    10 1   
    20     9    21 1   
    21     9    22 1   
    22     9    23 1   
    23    10    12 1   
    24    10    24 1   
    25    10    25 1   
    26    11    26 1   
    27    12    27 1   
    28    12    28 1   
    29    13    29 1   
    30    13    30 1   
    31    14    15 3   
@<TRIPOS>SUBSTRUCTURE
     1 RXJ         1 TEMP              0 ****  ****    0 ROOT
