@<TRIPOS>MOLECULE
RXK
   20    20     1     0     0
SMALL
abcg2


@<TRIPOS>ATOM
      1 C01        -12.3040   -30.5400   -42.9640 c6         1 RXK      -0.066400
      2 O01         -8.9020   -33.1800   -40.4010 o          1 RXK      -0.739500
      3 C02        -12.4820   -31.9660   -42.4600 c6         1 RXK      -0.074400
      4 O02         -8.8080   -31.1990   -39.3920 o          1 RXK      -0.739500
      5 C03        -11.1710   -32.5220   -41.8850 c6         1 RXK      -0.052400
      6 C04        -10.2890   -31.4310   -41.2550 c6         1 RXK      -0.186700
      7 C05        -11.1700   -30.3200   -40.6900 c6         1 RXK      -0.052400
      8 C06        -11.9470   -29.6010   -41.8030 c6         1 RXK      -0.074400
      9 C07         -9.2510   -31.9900   -40.2520 c          1 RXK       0.719000
     10 H1         -11.5100   -30.5250   -43.7170 hc         1 RXK       0.017200
     11 H2         -13.2060   -30.1910   -43.4710 hc         1 RXK       0.017200
     12 H3         -13.2620   -31.9740   -41.6920 hc         1 RXK       0.013950
     13 H5         -10.6130   -33.0310   -42.6740 hc         1 RXK       0.038700
     14 H6          -9.6910   -30.9780   -42.0610 hc         1 RXK       0.023700
     15 H7         -10.5680   -29.6030   -40.1320 hc         1 RXK       0.038700
     16 H8         -11.8700   -30.7570   -39.9680 hc         1 RXK       0.038700
     17 H9         -11.3570   -28.7620   -42.1820 hc         1 RXK       0.013950
     18 H10        -12.8580   -29.1640   -41.3860 hc         1 RXK       0.013950
     19 H11        -12.8470   -32.6150   -43.2600 hc         1 RXK       0.013950
     20 H12        -11.4020   -33.2860   -41.1400 hc         1 RXK       0.038700
@<TRIPOS>BOND
     1     1     3 1   
     2     1     8 1   
     3     1    10 1   
     4     1    11 1   
     5     2     9 1   
     6     3     5 1   
     7     3    12 1   
     8     3    19 1   
     9     4     9 1   
    10     5     6 1   
    11     5    13 1   
    12     5    20 1   
    13     6     7 1   
    14     6     9 1   
    15     6    14 1   
    16     7     8 1   
    17     7    15 1   
    18     7    16 1   
    19     8    17 1   
    20     8    18 1   
@<TRIPOS>SUBSTRUCTURE
     1 RXK         1 TEMP              0 ****  ****    0 ROOT
