@<TRIPOS>MOLECULE
RXK
   20    20     1     0     0
SMALL
No Charge or Current Charge


@<TRIPOS>ATOM
      1 C01        -12.3610   -30.4850   -42.9370 c6         1 RXK      -0.066400
      2 O01         -9.7100   -32.6520   -39.2880 o          1 RXK      -0.739500
      3 C02        -12.3690   -32.0000   -42.6300 c6         1 RXK      -0.074400
      4 O02         -8.0690   -31.7550   -40.3550 o          1 RXK      -0.739500
      5 C03        -11.0020   -32.4800   -42.0610 c6         1 RXK      -0.052400
      6 C04        -10.2490   -31.3820   -41.2390 c6         1 RXK      -0.186700
      7 C05        -11.2480   -30.3860   -40.5890 c6         1 RXK      -0.052400
      8 C06        -12.1010   -29.6400   -41.6560 c6         1 RXK      -0.074400
      9 C07         -9.2610   -31.9850   -40.2090 c          1 RXK       0.719000
     10 H1         -11.5810   -30.2730   -43.6820 hc         1 RXK       0.017200
     11 H2         -13.3130   -30.1840   -43.3950 hc         1 RXK       0.017200
     12 H3         -13.1660   -32.2150   -41.9040 hc         1 RXK       0.013950
     13 H5         -10.3550   -32.8130   -42.8850 hc         1 RXK       0.038700
     14 H6          -9.6430   -30.8060   -41.9530 hc         1 RXK       0.023700
     15 H7         -10.7090   -29.6530   -39.9720 hc         1 RXK       0.038700
     16 H8         -11.9130   -30.9310   -39.9040 hc         1 RXK       0.038700
     17 H9         -11.6020   -28.7040   -41.9430 hc         1 RXK       0.013950
     18 H10        -13.0590   -29.3480   -41.2050 hc         1 RXK       0.013950
     19 H11        -12.6160   -32.5700   -43.5360 hc         1 RXK       0.013950
     20 H12        -11.1790   -33.3700   -41.4420 hc         1 RXK       0.038700
@<TRIPOS>BOND
     1     1     3 1   
     2     1     8 1   
     3     1    10 1   
     4     1    11 1   
     5     2     9 1   
     6     3     5 1   
     7     3    12 1   
     8     3    19 1   
     9     4     9 1   
    10     5     6 1   
    11     5    13 1   
    12     5    20 1   
    13     6     7 1   
    14     6     9 1   
    15     6    14 1   
    16     7     8 1   
    17     7    15 1   
    18     7    16 1   
    19     8    17 1   
    20     8    18 1   
@<TRIPOS>SUBSTRUCTURE
     1 RXK         1 TEMP              0 ****  ****    0 ROOT
