@<TRIPOS>MOLECULE
RXL
   16    15     1     0     0
SMALL
No Charge or Current Charge


@<TRIPOS>ATOM
      1 C          145.9670   176.0440   152.5070 c          1 RXL       0.710200
      2 CG1        144.7760   174.2450   149.0870 c3         1 RXL      -0.017900
      3 N          144.0030   176.3740   150.9730 nv         1 RXL      -0.928000
      4 CA         145.1810   175.6300   151.2150 ce         1 RXL       0.018800
      5 O          146.9960   175.4650   152.8300 o          1 RXL      -0.722500
      6 CB         145.5530   174.6390   150.3460 c2         1 RXL      -0.242400
      7 CG2        146.7990   173.7690   150.4850 c3         1 RXL      -0.017900
      8 OXT        145.5200   176.9680   153.1820 o          1 RXL      -0.722500
      9 HG11       143.8570   174.8220   148.9340 hc         1 RXL       0.013200
     10 HG12       145.3900   174.3850   148.1890 hc         1 RXL       0.013200
     11 HG13       144.4820   173.1890   149.1240 hc         1 RXL       0.013200
     12 H          143.8040   177.1780   151.5680 hn         1 RXL       0.420500
     13 H2         143.5210   176.2950   150.0810 hn         1 RXL       0.420500
     14 HG21       147.7100   174.3790   150.4850 hc         1 RXL       0.013200
     15 HG22       146.7730   173.1870   151.4140 hc         1 RXL       0.013200
     16 HG23       146.9030   173.0480   149.6640 hc         1 RXL       0.013200
@<TRIPOS>BOND
     1     1     4 1   
     2     1     5 1   
     3     1     8 1   
     4     2     6 1   
     5     2     9 1   
     6     2    10 1   
     7     2    11 1   
     8     3     4 1   
     9     3    12 1   
    10     3    13 1   
    11     4     6 2   
    12     6     7 1   
    13     7    14 1   
    14     7    15 1   
    15     7    16 1   
@<TRIPOS>SUBSTRUCTURE
     1 RXL         1 TEMP              0 ****  ****    0 ROOT
