@<TRIPOS>MOLECULE
RXL
   16    15     1     0     0
SMALL
abcg2


@<TRIPOS>ATOM
      1 C          145.9280   176.1010   152.4240 c          1 RXL       0.710200
      2 CG1        144.6820   174.1750   149.2300 c3         1 RXL      -0.017900
      3 N          144.0220   176.3270   150.9130 nv         1 RXL      -0.928000
      4 CA         145.1920   175.6030   151.1750 ce         1 RXL       0.018800
      5 O          146.7040   175.3250   153.0120 o          1 RXL      -0.722500
      6 CB         145.5590   174.5690   150.3930 c2         1 RXL      -0.242400
      7 CG2        146.8210   173.7640   150.5170 c3         1 RXL      -0.017900
      8 OXT        145.6560   177.2730   152.7640 o          1 RXL      -0.722500
      9 HG11       143.6200   174.2010   149.4860 hc         1 RXL       0.013200
     10 HG12       144.8150   174.8310   148.3630 hc         1 RXL       0.013200
     11 HG13       144.9100   173.1630   148.8920 hc         1 RXL       0.013200
     12 H          144.0590   177.2180   151.3870 hn         1 RXL       0.420500
     13 H2         143.8180   176.4590   149.9340 hn         1 RXL       0.420500
     14 HG21       147.5280   174.1860   151.2220 hc         1 RXL       0.013200
     15 HG22       146.6100   172.7360   150.8310 hc         1 RXL       0.013200
     16 HG23       147.3100   173.6850   149.5410 hc         1 RXL       0.013200
@<TRIPOS>BOND
     1     1     4 1   
     2     1     5 1   
     3     1     8 1   
     4     2     6 1   
     5     2     9 1   
     6     2    10 1   
     7     2    11 1   
     8     3     4 1   
     9     3    12 1   
    10     3    13 1   
    11     4     6 2   
    12     6     7 1   
    13     7    14 1   
    14     7    15 1   
    15     7    16 1   
@<TRIPOS>SUBSTRUCTURE
     1 RXL         1 TEMP              0 ****  ****    0 ROOT
