@<TRIPOS>MOLECULE
RXM
  108   113     1     0     0
SMALL
No Charge or Current Charge


@<TRIPOS>ATOM
      1 N1          92.4540   100.8920    42.7800 ns         1 RXM      -0.185000
      2 C2          92.3530   102.2370    43.2550 ca         1 RXM      -0.142000
      3 O11         90.3200   100.1290    42.7010 o          1 RXM      -0.555100
      4 C15         91.5130    99.9150    42.5170 c          1 RXM       0.593300
      5 C16         92.0200    98.5820    41.9890 ce         1 RXM      -0.173400
      6 C30         90.9040    97.5740    41.7090 c3         1 RXM      -0.047900
      7 C17         93.3210    98.2130    41.7170 cf         1 RXM      -0.141000
      8 C18         94.5850    98.9350    41.8730 cf         1 RXM      -0.238000
      9 C19         95.7030    98.6180    41.1800 c2         1 RXM      -0.168200
     10 C20         97.0410    99.3420    41.2700 c3         1 RXM      -0.078500
     11 C31         97.5820    99.2970    42.7210 c3         1 RXM      -0.083100
     12 C21         96.9260   100.7920    40.6960 c3         1 RXM       0.184300
     13 O10         96.3260   100.7060    39.3990 oh         1 RXM      -0.630000
     14 C22         98.2630   101.6230    40.6400 c3         1 RXM      -0.041700
     15 C32         99.3580   100.9720    39.7490 c3         1 RXM      -0.081100
     16 C23         98.0950   103.1560    40.3170 c3         1 RXM       0.191300
     17 O9          97.8540   103.3650    38.9200 oh         1 RXM      -0.650000
     18 C24         97.0230   103.9240    41.1640 c3         1 RXM      -0.104700
     19 C33         97.3170   103.7840    42.6870 c3         1 RXM      -0.087100
     20 C25         96.8100   105.4270    40.7310 c3         1 RXM       0.181300
     21 O7          97.9840   106.1800    41.1130 os         1 RXM      -0.458100
     22 C35         99.0040   106.3430    40.2120 c          1 RXM       0.605100
     23 O8          99.0020   105.9100    39.0680 o          1 RXM      -0.507000
     24 C36        100.1470   107.1480    40.8080 c3         1 RXM      -0.157100
     25 C26         95.5680   106.1410    41.3640 c3         1 RXM      -0.050700
     26 C34         94.2400   105.4090    41.0060 c3         1 RXM      -0.087100
     27 C27         95.5060   107.6660    41.0310 c3         1 RXM       0.216500
     28 O6          95.0260   107.8290    39.6850 os         1 RXM      -0.451000
     29 C37         95.1190   109.1630    39.1540 c3         1 RXM       0.145900
     30 C28         94.5720   108.3940    41.9780 c2         1 RXM      -0.302200
     31 C29         94.9760   109.1550    43.0120 c2         1 RXM      -0.020900
     32 O5          94.1610   109.6900    43.9940 os         1 RXM      -0.341100
     33 C12         93.1860   108.7370    44.5450 c5         1 RXM       0.274000
     34 O3          92.0200   108.6630    43.6880 os         1 RXM      -0.333100
     35 C6          91.7570   107.3190    43.5550 ca         1 RXM       0.227100
     36 C13         92.7100   109.2880    45.9070 c3         1 RXM      -0.078100
     37 C11         93.7580   107.2880    44.7240 c          1 RXM       0.562700
     38 O4          94.8540   106.9610    45.1570 o          1 RXM      -0.454100
     39 C5          92.6930   106.4470    44.0920 ca         1 RXM      -0.304600
     40 C10         92.5720   105.0340    43.9060 ca         1 RXM       0.172000
     41 C9          91.4630   104.5510    43.1310 ca         1 RXM      -0.183000
     42 C8          90.5070   105.4870    42.6330 ca         1 RXM       0.249100
     43 O2          89.4420   105.0710    41.8950 oh         1 RXM      -0.524100
     44 C7          90.6460   106.8680    42.8430 ca         1 RXM      -0.184300
     45 C14         89.6340   107.8620    42.2590 c3         1 RXM      -0.019800
     46 C1          91.3600   103.1510    42.8300 ca         1 RXM       0.169100
     47 O1          90.3290   102.6740    42.0700 oh         1 RXM      -0.572100
     48 C4          93.4980   104.0710    44.4010 ca         1 RXM       0.073400
     49 N3          94.6270   104.2770    45.1970 nc         1 RXM      -0.245400
     50 C38         95.1260   103.0510    45.3510 cd         1 RXM      -0.047000
     51 N2          94.4600   102.0840    44.6160 na         1 RXM       0.131200
     52 C3          93.3670   102.7320    44.0890 ca         1 RXM      -0.062200
     53 C39         96.2370   102.7090    46.1780 cd         1 RXM      -0.088000
     54 C40         96.4500   101.3630    46.4040 cc         1 RXM      -0.056300
     55 C41         94.3460   100.8020    45.1720 cd         1 RXM      -0.084000
     56 C42         95.4470   100.4310    45.9360 cc         1 RXM      -0.157000
     57 C43         97.5850   100.8330    47.2370 c3         1 RXM      -0.047800
     58 H1          93.3990   100.6060    42.5800 hn         1 RXM       0.161000
     59 H3          90.1740    97.9770    40.9960 hc         1 RXM       0.053033
     60 H4          91.2780    96.6350    41.2850 hc         1 RXM       0.053033
     61 H5          90.3630    97.3180    42.6280 hc         1 RXM       0.053033
     62 H6          93.4500    97.2140    41.2920 ha         1 RXM       0.179000
     63 H7          94.6660    99.7420    42.5950 ha         1 RXM       0.180000
     64 H8          95.6800    97.7930    40.4630 ha         1 RXM       0.177000
     65 H9          97.7530    98.7880    40.6460 hc         1 RXM       0.072700
     66 H10         97.5290    98.2760    43.1170 hc         1 RXM       0.039367
     67 H11         98.6300    99.6120    42.7640 hc         1 RXM       0.039367
     68 H12         96.9980    99.9500    43.3810 hc         1 RXM       0.039367
     69 H13         96.2340   101.3150    41.3670 h1         1 RXM       0.021700
     70 H14         95.5570   100.1070    39.5020 ho         1 RXM       0.431000
     71 H15         98.6820   101.6000    41.6510 hc         1 RXM       0.045700
     72 H16         99.6450    99.9850    40.1310 hc         1 RXM       0.038700
     73 H17         99.0130   100.8520    38.7150 hc         1 RXM       0.038700
     74 H18        100.2620   101.5920    39.7360 hc         1 RXM       0.038700
     75 H19         99.0650   103.6110    40.5580 h1         1 RXM       0.019700
     76 H20         98.2570   104.2410    38.7090 ho         1 RXM       0.462000
     77 H21         96.0730   103.4200    40.9700 hc         1 RXM       0.070700
     78 H22         96.6030   104.3440    43.2930 hc         1 RXM       0.037033
     79 H23         97.2490   102.7410    43.0150 hc         1 RXM       0.037033
     80 H24         98.3220   104.1520    42.9280 hc         1 RXM       0.037033
     81 H25         96.6480   105.4750    39.6450 h1         1 RXM       0.084700
     82 H26        100.9710   107.2970    40.1010 hc         1 RXM       0.068367
     83 H27         99.7520   108.0990    41.1810 hc         1 RXM       0.068367
     84 H28        100.4810   106.6580    41.7290 hc         1 RXM       0.068367
     85 H29         95.6760   106.0950    42.4520 hc         1 RXM       0.073700
     86 H30         93.3640   105.9910    41.3090 hc         1 RXM       0.041033
     87 H31         94.1660   105.2390    39.9250 hc         1 RXM       0.041033
     88 H32         94.1720   104.4390    41.5090 hc         1 RXM       0.041033
     89 H33         96.5090   108.1030    41.1300 h1         1 RXM       0.040700
     90 H34         94.7680   109.1840    38.1150 h1         1 RXM       0.029367
     91 H35         94.5040   109.8640    39.7340 h1         1 RXM       0.029367
     92 H36         96.1580   109.5170    39.1700 h1         1 RXM       0.029367
     93 H37         93.5200   108.2300    41.7640 ha         1 RXM       0.200000
     94 H38         96.0360   109.3430    43.2010 h4         1 RXM       0.197000
     95 H39         93.5430   109.3520    46.6160 hc         1 RXM       0.064033
     96 H40         92.2840   110.2920    45.7970 hc         1 RXM       0.064033
     97 H41         91.9430   108.6420    46.3500 hc         1 RXM       0.064033
     98 H42         89.5700   104.0910    41.8100 ho         1 RXM       0.505000
     99 H43         88.6030   107.5430    42.4550 hc         1 RXM       0.048367
    100 H44         89.7360   108.8670    42.6840 hc         1 RXM       0.048367
    101 H45         89.7560   107.9490    41.1730 hc         1 RXM       0.048367
    102 H46         96.8480   103.4710    46.6520 ha         1 RXM       0.148000
    103 H47         93.5290   100.1520    44.8920 h4         1 RXM       0.148000
    104 H48         95.5380    99.3960    46.2520 ha         1 RXM       0.131000
    105 H49         98.0400    99.9540    46.7660 hc         1 RXM       0.048367
    106 H50         98.3720   101.5870    47.3650 hc         1 RXM       0.048367
    107 H51         97.2340   100.5410    48.2330 hc         1 RXM       0.048367
    108 H2          90.2520   101.7000    42.2610 ho         1 RXM       0.494000
@<TRIPOS>BOND
     1     1     2 1   
     2     1     4 1   
     3     1    58 1   
     4     2    46 ar  
     5     2    52 ar  
     6     3     4 2   
     7     4     5 1   
     8     5     6 1   
     9     5     7 2   
    10     6    59 1   
    11     6    60 1   
    12     6    61 1   
    13     7     8 1   
    14     7    62 1   
    15     8     9 2   
    16     8    63 1   
    17     9    10 1   
    18     9    64 1   
    19    10    11 1   
    20    10    12 1   
    21    10    65 1   
    22    11    66 1   
    23    11    67 1   
    24    11    68 1   
    25    12    13 1   
    26    12    14 1   
    27    12    69 1   
    28    13    70 1   
    29    14    15 1   
    30    14    16 1   
    31    14    71 1   
    32    15    72 1   
    33    15    73 1   
    34    15    74 1   
    35    16    17 1   
    36    16    18 1   
    37    16    75 1   
    38    17    76 1   
    39    18    19 1   
    40    18    20 1   
    41    18    77 1   
    42    19    78 1   
    43    19    79 1   
    44    19    80 1   
    45    20    21 1   
    46    20    25 1   
    47    20    81 1   
    48    21    22 1   
    49    22    23 2   
    50    22    24 1   
    51    24    82 1   
    52    24    83 1   
    53    24    84 1   
    54    25    26 1   
    55    25    27 1   
    56    25    85 1   
    57    26    86 1   
    58    26    87 1   
    59    26    88 1   
    60    27    28 1   
    61    27    30 1   
    62    27    89 1   
    63    28    29 1   
    64    29    90 1   
    65    29    91 1   
    66    29    92 1   
    67    30    31 2   
    68    30    93 1   
    69    31    32 1   
    70    31    94 1   
    71    32    33 1   
    72    33    34 1   
    73    33    36 1   
    74    33    37 1   
    75    34    35 1   
    76    35    39 ar  
    77    35    44 ar  
    78    36    95 1   
    79    36    96 1   
    80    36    97 1   
    81    37    38 2   
    82    37    39 1   
    83    39    40 ar  
    84    40    41 ar  
    85    40    48 ar  
    86    41    42 ar  
    87    41    46 ar  
    88    42    43 1   
    89    42    44 ar  
    90    43    98 1   
    91    44    45 1   
    92    45    99 1   
    93    45   100 1   
    94    45   101 1   
    95    46    47 1   
    96    47   108 1   
    97    48    49 1   
    98    48    52 ar  
    99    49    50 2   
   100    50    51 1   
   101    50    53 1   
   102    51    52 1   
   103    51    55 1   
   104    53    54 2   
   105    53   102 1   
   106    54    56 1   
   107    54    57 1   
   108    55    56 2   
   109    55   103 1   
   110    56   104 1   
   111    57   105 1   
   112    57   106 1   
   113    57   107 1   
@<TRIPOS>SUBSTRUCTURE
     1 RXM         1 TEMP              0 ****  ****    0 ROOT
