@<TRIPOS>MOLECULE
RXM
  108   113     1     0     0
SMALL
abcg2


@<TRIPOS>ATOM
      1 N1          92.4050   100.9790    42.5520 ns         1 RXM      -0.185000
      2 C2          92.3700   102.2850    43.0800 ca         1 RXM      -0.142000
      3 O11         91.5030    99.9460    44.3420 o          1 RXM      -0.555100
      4 C15         91.9980    99.8700    43.2340 c          1 RXM       0.593300
      5 C16         92.1950    98.5700    42.5320 ce         1 RXM      -0.173400
      6 C30         91.0790    97.5880    42.7200 c3         1 RXM      -0.047900
      7 C17         93.3140    98.2450    41.8560 cf         1 RXM      -0.141000
      8 C18         94.5310    99.0150    41.6700 cf         1 RXM      -0.238000
      9 C19         95.6000    98.5440    41.0180 c2         1 RXM      -0.168200
     10 C20         96.9180    99.2680    40.9040 c3         1 RXM      -0.078500
     11 C31         97.7270    99.0030    42.1780 c3         1 RXM      -0.083100
     12 C21         96.7340   100.7700    40.6180 c3         1 RXM       0.184300
     13 O10         96.0220   100.9680    39.4190 oh         1 RXM      -0.630000
     14 C22         98.0550   101.5390    40.5470 c3         1 RXM      -0.041700
     15 C32         99.0470   100.9380    39.5530 c3         1 RXM      -0.081100
     16 C23         97.9160   103.0530    40.3000 c3         1 RXM       0.191300
     17 O9          97.6410   103.2860    38.9380 oh         1 RXM      -0.650000
     18 C24         96.8950   103.7600    41.2180 c3         1 RXM      -0.104700
     19 C33         97.2290   103.5320    42.6910 c3         1 RXM      -0.087100
     20 C25         96.7700   105.2540    40.8780 c3         1 RXM       0.181300
     21 O7          97.9780   105.9270    41.2800 os         1 RXM      -0.458100
     22 C35         98.8790   106.3010    40.3840 c          1 RXM       0.605100
     23 O8          98.8480   105.9940    39.2140 o          1 RXM      -0.507000
     24 C36         99.9370   107.1670    41.0000 c3         1 RXM      -0.157100
     25 C26         95.5790   105.9660    41.5450 c3         1 RXM      -0.050700
     26 C34         94.2850   105.4650    40.9050 c3         1 RXM      -0.087100
     27 C27         95.7240   107.4960    41.4600 c3         1 RXM       0.216500
     28 O6          95.8090   107.8450    40.0970 os         1 RXM      -0.451000
     29 C37         96.2360   109.1660    39.8750 c3         1 RXM       0.145900
     30 C28         94.5980   108.2120    42.1520 c2         1 RXM      -0.302200
     31 C29         94.8140   108.8830    43.2760 c2         1 RXM      -0.020900
     32 O5          93.8680   109.5090    44.0460 os         1 RXM      -0.341100
     33 C12         92.8040   108.7700    44.5530 c5         1 RXM       0.274000
     34 O3          91.7950   108.6020    43.5600 os         1 RXM      -0.333100
     35 C6          91.5950   107.2910    43.3560 ca         1 RXM       0.227100
     36 C13         92.2200   109.5240    45.7250 c3         1 RXM      -0.078100
     37 C11         93.2250   107.3290    44.9300 c          1 RXM       0.562700
     38 O4          94.0430   107.1390    45.7970 o          1 RXM      -0.454100
     39 C5          92.4320   106.4570    44.0900 ca         1 RXM      -0.304600
     40 C10         92.4000   105.0610    43.8480 ca         1 RXM       0.172000
     41 C9          91.4470   104.5640    42.9170 ca         1 RXM      -0.183000
     42 C8          90.5460   105.4830    42.2740 ca         1 RXM       0.249100
     43 O2          89.5990   105.0900    41.4330 oh         1 RXM      -0.524100
     44 C7          90.6270   106.8560    42.4620 ca         1 RXM      -0.184300
     45 C14         89.7160   107.7900    41.7240 c3         1 RXM      -0.019800
     46 C1          91.4520   103.1740    42.5760 ca         1 RXM       0.169100
     47 O1          90.5400   102.7600    41.6720 oh         1 RXM      -0.572100
     48 C4          93.3080   104.1290    44.4130 ca         1 RXM       0.073400
     49 N3          94.3190   104.3670    45.2890 nc         1 RXM      -0.245400
     50 C38         94.9110   103.2140    45.4640 cd         1 RXM      -0.047000
     51 N2          94.3140   102.1970    44.7200 na         1 RXM       0.131200
     52 C3          93.2800   102.7840    44.0300 ca         1 RXM      -0.062200
     53 C39         96.0370   102.9030    46.2620 cd         1 RXM      -0.088000
     54 C40         96.5250   101.6330    46.3030 cc         1 RXM      -0.056300
     55 C41         94.7810   100.9110    44.7820 cd         1 RXM      -0.084000
     56 C42         95.8590   100.6240    45.5420 cc         1 RXM      -0.157000
     57 C43         97.7190   101.2630    47.1220 c3         1 RXM      -0.047800
     58 H1          92.6950   100.8690    41.5900 hn         1 RXM       0.161000
     59 H3          90.1300    97.9870    42.3560 hc         1 RXM       0.053033
     60 H4          91.2830    96.6610    42.1860 hc         1 RXM       0.053033
     61 H5          90.9390    97.3460    43.7740 hc         1 RXM       0.053033
     62 H6          93.3440    97.2480    41.4260 ha         1 RXM       0.179000
     63 H7          94.5990   100.0010    42.1120 ha         1 RXM       0.180000
     64 H8          95.5540    97.5470    40.5880 ha         1 RXM       0.177000
     65 H9          97.4570    98.8270    40.0610 hc         1 RXM       0.072700
     66 H10         97.7380    97.9390    42.4140 hc         1 RXM       0.039367
     67 H11         98.7630    99.3240    42.0750 hc         1 RXM       0.039367
     68 H12         97.2870    99.5230    43.0320 hc         1 RXM       0.039367
     69 H13         96.1710   101.1940    41.4670 h1         1 RXM       0.021700
     70 H14         95.2070   100.4570    39.4650 ho         1 RXM       0.431000
     71 H15         98.5020   101.4570    41.5430 hc         1 RXM       0.045700
     72 H16         99.4120    99.9670    39.8900 hc         1 RXM       0.038700
     73 H17         98.6090   100.8050    38.5650 hc         1 RXM       0.038700
     74 H18         99.9210   101.5820    39.4460 hc         1 RXM       0.038700
     75 H19         98.9120   103.4530    40.5510 h1         1 RXM       0.019700
     76 H20         98.0020   104.1530    38.7140 ho         1 RXM       0.462000
     77 H21         95.9130   103.3290    41.0010 hc         1 RXM       0.070700
     78 H22         96.6030   104.1280    43.3540 hc         1 RXM       0.037033
     79 H23         97.0800   102.4910    42.9790 hc         1 RXM       0.037033
     80 H24         98.2680   103.7810    42.9120 hc         1 RXM       0.037033
     81 H25         96.6390   105.3680    39.8010 h1         1 RXM       0.084700
     82 H26        100.7850   107.2690    40.3300 hc         1 RXM       0.068367
     83 H27         99.5260   108.1600    41.1940 hc         1 RXM       0.068367
     84 H28        100.2700   106.7640    41.9550 hc         1 RXM       0.068367
     85 H29         95.5450   105.7280    42.6140 hc         1 RXM       0.073700
     86 H30         93.4130   105.9680    41.3180 hc         1 RXM       0.041033
     87 H31         94.2820   105.6190    39.8250 hc         1 RXM       0.041033
     88 H32         94.1360   104.4010    41.0900 hc         1 RXM       0.041033
     89 H33         96.6530   107.7810    41.9770 h1         1 RXM       0.040700
     90 H34         96.3150   109.3120    38.7990 h1         1 RXM       0.029367
     91 H35         95.5370   109.9070    40.2770 h1         1 RXM       0.029367
     92 H36         97.2200   109.3570    40.3230 h1         1 RXM       0.029367
     93 H37         93.6100   108.1490    41.7120 ha         1 RXM       0.200000
     94 H38         95.8160   109.0030    43.6780 h4         1 RXM       0.197000
     95 H39         92.9550   109.6040    46.5240 hc         1 RXM       0.064033
     96 H40         91.9170   110.5270    45.4230 hc         1 RXM       0.064033
     97 H41         91.3460   109.0020    46.1150 hc         1 RXM       0.064033
     98 H42         89.6250   104.1250    41.3010 ho         1 RXM       0.505000
     99 H43         88.6700   107.5980    41.9650 hc         1 RXM       0.048367
    100 H44         89.9240   108.8280    41.9710 hc         1 RXM       0.048367
    101 H45         89.8250   107.6800    40.6440 hc         1 RXM       0.048367
    102 H46         96.4950   103.7070    46.8240 ha         1 RXM       0.148000
    103 H47         94.2610   100.1530    44.2250 h4         1 RXM       0.148000
    104 H48         96.2060    99.6000    45.5740 ha         1 RXM       0.131000
    105 H49         98.4790   100.7820    46.5040 hc         1 RXM       0.048367
    106 H50         98.1660   102.1340    47.5960 hc         1 RXM       0.048367
    107 H51         97.4480   100.5510    47.9030 hc         1 RXM       0.048367
    108 H2          90.5540   101.7990    41.5580 ho         1 RXM       0.494000
@<TRIPOS>BOND
     1     1     2 1   
     2     1     4 1   
     3     1    58 1   
     4     2    46 ar  
     5     2    52 ar  
     6     3     4 2   
     7     4     5 1   
     8     5     6 1   
     9     5     7 2   
    10     6    59 1   
    11     6    60 1   
    12     6    61 1   
    13     7     8 1   
    14     7    62 1   
    15     8     9 2   
    16     8    63 1   
    17     9    10 1   
    18     9    64 1   
    19    10    11 1   
    20    10    12 1   
    21    10    65 1   
    22    11    66 1   
    23    11    67 1   
    24    11    68 1   
    25    12    13 1   
    26    12    14 1   
    27    12    69 1   
    28    13    70 1   
    29    14    15 1   
    30    14    16 1   
    31    14    71 1   
    32    15    72 1   
    33    15    73 1   
    34    15    74 1   
    35    16    17 1   
    36    16    18 1   
    37    16    75 1   
    38    17    76 1   
    39    18    19 1   
    40    18    20 1   
    41    18    77 1   
    42    19    78 1   
    43    19    79 1   
    44    19    80 1   
    45    20    21 1   
    46    20    25 1   
    47    20    81 1   
    48    21    22 1   
    49    22    23 2   
    50    22    24 1   
    51    24    82 1   
    52    24    83 1   
    53    24    84 1   
    54    25    26 1   
    55    25    27 1   
    56    25    85 1   
    57    26    86 1   
    58    26    87 1   
    59    26    88 1   
    60    27    28 1   
    61    27    30 1   
    62    27    89 1   
    63    28    29 1   
    64    29    90 1   
    65    29    91 1   
    66    29    92 1   
    67    30    31 2   
    68    30    93 1   
    69    31    32 1   
    70    31    94 1   
    71    32    33 1   
    72    33    34 1   
    73    33    36 1   
    74    33    37 1   
    75    34    35 1   
    76    35    39 ar  
    77    35    44 ar  
    78    36    95 1   
    79    36    96 1   
    80    36    97 1   
    81    37    38 2   
    82    37    39 1   
    83    39    40 ar  
    84    40    41 ar  
    85    40    48 ar  
    86    41    42 ar  
    87    41    46 ar  
    88    42    43 1   
    89    42    44 ar  
    90    43    98 1   
    91    44    45 1   
    92    45    99 1   
    93    45   100 1   
    94    45   101 1   
    95    46    47 1   
    96    47   108 1   
    97    48    49 1   
    98    48    52 ar  
    99    49    50 2   
   100    50    51 1   
   101    50    53 1   
   102    51    52 1   
   103    51    55 1   
   104    53    54 2   
   105    53   102 1   
   106    54    56 1   
   107    54    57 1   
   108    55    56 2   
   109    55   103 1   
   110    56   104 1   
   111    57   105 1   
   112    57   106 1   
   113    57   107 1   
@<TRIPOS>SUBSTRUCTURE
     1 RXM         1 TEMP              0 ****  ****    0 ROOT
