@<TRIPOS>MOLECULE
RXN
   56    60     1     0     0
SMALL
abcg2


@<TRIPOS>ATOM
      1 O1         -38.5890   -24.7460     0.3950 o          1 RXN      -0.578100
      2 C1         -42.0790   -18.6900     7.0430 ca         1 RXN      -0.058000
      3 O2         -38.5150   -19.2030     3.9980 o          1 RXN      -0.537000
      4 C2         -41.6140   -17.9400     8.1170 ca         1 RXN      -0.112000
      5 C3         -41.8180   -16.5710     8.1690 ca         1 RXN      -0.090000
      6 C4         -42.4860   -15.9480     7.1270 ca         1 RXN       0.118000
      7 C5         -42.9500   -16.6690     6.0390 ca         1 RXN      -0.097000
      8 C6         -42.7590   -18.0410     6.0100 ca         1 RXN       0.087100
      9 C7         -42.3240   -19.2350     4.0380 c3         1 RXN       0.153600
     10 C8         -41.0900   -19.8640     4.7030 c3         1 RXN      -0.006300
     11 C9         -40.9360   -21.6590     2.9490 c6         1 RXN       0.115000
     12 C10        -40.0400   -22.8770     2.7760 c6         1 RXN      -0.016100
     13 C11        -38.7250   -22.3890     2.2870 cc         1 RXN      -0.107300
     14 C12        -38.2890   -21.1020     2.6130 cc         1 RXN       0.170500
     15 C14        -35.8620   -21.9810    -0.8050 ca         1 RXN      -0.128300
     16 C15        -35.3700   -23.0090    -1.6000 ca         1 RXN      -0.084500
     17 C16        -35.6650   -23.0530    -2.9570 ca         1 RXN      -0.109500
     18 C17        -36.4600   -22.0700    -3.5270 ca         1 RXN      -0.092000
     19 C18        -36.9580   -21.0400    -2.7360 ca         1 RXN      -0.109500
     20 N          -41.9150   -20.0870     7.0040 n          1 RXN      -0.223400
     21 C          -42.1790   -20.8650     8.2080 c3         1 RXN       0.093300
     22 O          -43.2690   -18.7750     4.9890 os         1 RXN      -0.346100
     23 C19        -36.6590   -20.9950    -1.3830 ca         1 RXN      -0.084500
     24 C20        -37.6880   -22.9210     1.5580 cd         1 RXN      -0.217600
     25 C21        -37.6120   -24.2770     0.9570 c          1 RXN       0.648700
     26 C22        -39.0280   -20.1910     3.4980 c          1 RXN       0.507500
     27 C23        -41.4400   -20.7380     5.9100 c          1 RXN       0.564000
     28 N1         -40.3040   -20.5970     3.7430 n          1 RXN      -0.402800
     29 N2         -37.0930   -20.8430     2.1110 nd         1 RXN      -0.441800
     30 N3         -36.7340   -21.9470     1.4880 na         1 RXN       0.150800
     31 N4         -36.4470   -24.9240     1.0990 nt         1 RXN      -0.602000
     32 CL         -42.7430   -14.2370     7.1780 cl         1 RXN      -0.191000
     33 H1         -41.0810   -18.4250     8.9240 ha         1 RXN       0.129000
     34 H2         -41.4510   -16.0010     9.0110 ha         1 RXN       0.135000
     35 H3         -43.4790   -16.1840     5.2290 ha         1 RXN       0.145000
     36 H4         -41.9940   -18.4180     3.3890 h1         1 RXN       0.065700
     37 H5         -42.8610   -19.9600     3.4280 h1         1 RXN       0.065700
     38 H6         -40.4540   -19.0530     5.0640 h1         1 RXN       0.112700
     39 H7         -41.2040   -21.2670     1.9630 h1         1 RXN       0.053200
     40 H8         -41.8560   -21.9550     3.4420 h1         1 RXN       0.053200
     41 H9         -40.5080   -23.5680     2.0770 hc         1 RXN       0.079700
     42 H10        -39.9270   -23.3980     3.7300 hc         1 RXN       0.079700
     43 H11        -34.8710   -22.7430     0.9430 h1         1 RXN       0.076200
     44 H12        -35.0220   -21.0000     0.9170 h1         1 RXN       0.076200
     45 H13        -34.7570   -23.7840    -1.1550 ha         1 RXN       0.117000
     46 H14        -35.2740   -23.8580    -3.5660 ha         1 RXN       0.117000
     47 H15        -36.6930   -22.1040    -4.5830 ha         1 RXN       0.116000
     48 H16        -37.5750   -20.2680    -3.1770 ha         1 RXN       0.117000
     49 H17        -42.7740   -20.2680     8.8930 h1         1 RXN       0.048700
     50 H18        -42.7440   -21.7600     7.9590 h1         1 RXN       0.048700
     51 H19        -41.2570   -21.1630     8.7080 h1         1 RXN       0.048700
     52 H20        -37.0470   -20.1850    -0.7770 ha         1 RXN       0.117000
     53 H21        -36.3540   -25.8630     0.7450 hn         1 RXN       0.316000
     54 H22        -35.7390   -24.6130     1.7420 hn         1 RXN       0.316000
     55 O3         -41.2580   -21.9410     5.9130 o          1 RXN      -0.537000
     56 C13        -35.5340   -21.9260     0.6630 c3         1 RXN       0.130900
@<TRIPOS>BOND
     1     1    25 2   
     2     2     4 ar  
     3     2     8 ar  
     4     2    20 1   
     5     3    26 2   
     6     4     5 ar  
     7     4    33 1   
     8     5     6 ar  
     9     5    34 1   
    10     6     7 ar  
    11     6    32 1   
    12     7     8 ar  
    13     7    35 1   
    14     8    22 1   
    15     9    10 1   
    16     9    22 1   
    17     9    36 1   
    18     9    37 1   
    19    10    27 1   
    20    10    28 1   
    21    10    38 1   
    22    11    12 1   
    23    11    28 1   
    24    11    39 1   
    25    11    40 1   
    26    12    13 1   
    27    12    41 1   
    28    12    42 1   
    29    13    14 1   
    30    13    24 2   
    31    14    26 1   
    32    14    29 2   
    33    15    16 ar  
    34    15    23 ar  
    35    15    56 1   
    36    16    17 ar  
    37    16    45 1   
    38    17    18 ar  
    39    17    46 1   
    40    18    19 ar  
    41    18    47 1   
    42    19    23 ar  
    43    19    48 1   
    44    20    21 1   
    45    20    27 1   
    46    21    49 1   
    47    21    50 1   
    48    21    51 1   
    49    23    52 1   
    50    24    25 1   
    51    24    30 1   
    52    25    31 1   
    53    26    28 1   
    54    27    55 2   
    55    29    30 1   
    56    30    56 1   
    57    31    53 1   
    58    31    54 1   
    59    43    56 1   
    60    44    56 1   
@<TRIPOS>SUBSTRUCTURE
     1 RXN         1 TEMP              0 ****  ****    0 ROOT
