@<TRIPOS>MOLECULE
RXN
   56    60     1     0     0
SMALL
No Charge or Current Charge


@<TRIPOS>ATOM
      1 O1         -38.7600   -25.1590     1.2320 o          1 RXN      -0.578100
      2 C1         -42.3240   -18.5960     7.3080 ca         1 RXN      -0.058000
      3 O2         -38.7080   -19.0700     3.8820 o          1 RXN      -0.537000
      4 C2         -41.7510   -17.8470     8.3590 ca         1 RXN      -0.112000
      5 C3         -41.8100   -16.4410     8.3500 ca         1 RXN      -0.090000
      6 C4         -42.4000   -15.7690     7.2680 ca         1 RXN       0.118000
      7 C5         -42.9060   -16.4980     6.1830 ca         1 RXN      -0.097000
      8 C6         -42.8310   -17.8990     6.1910 ca         1 RXN       0.087100
      9 C7         -42.4470   -19.1760     4.1590 c3         1 RXN       0.153600
     10 C8         -41.2540   -19.8910     4.8480 c3         1 RXN      -0.006300
     11 C9         -41.0420   -21.7330     3.0630 c6         1 RXN       0.115000
     12 C10        -40.0760   -22.9090     2.8400 c6         1 RXN      -0.016100
     13 C11        -38.7760   -22.3710     2.2890 cc         1 RXN      -0.107300
     14 C12        -38.3300   -21.0720     2.5930 cc         1 RXN       0.170500
     15 C14        -35.6500   -22.1020    -0.8900 ca         1 RXN      -0.128300
     16 C15        -34.6180   -22.7300    -1.6180 ca         1 RXN      -0.084500
     17 C16        -34.6890   -22.8190    -3.0190 ca         1 RXN      -0.109500
     18 C17        -35.7880   -22.2780    -3.7050 ca         1 RXN      -0.092000
     19 C18        -36.8160   -21.6430    -2.9890 ca         1 RXN      -0.109500
     20 N          -42.1230   -20.0250     7.2510 n          1 RXN      -0.223400
     21 C          -42.3280   -20.8040     8.4940 c3         1 RXN       0.093300
     22 O          -43.3360   -18.6050     5.1310 os         1 RXN      -0.346100
     23 C19        -36.7480   -21.5520    -1.5880 ca         1 RXN      -0.084500
     24 C20        -37.8280   -22.9600     1.4900 cd         1 RXN      -0.217600
     25 C21        -37.8870   -24.3550     0.9560 c          1 RXN       0.648700
     26 C22        -39.1240   -20.1530     3.4820 c          1 RXN       0.507500
     27 C23        -41.6850   -20.7230     6.0910 c          1 RXN       0.564000
     28 N1         -40.4100   -20.6380     3.8490 n          1 RXN      -0.402800
     29 N2         -37.1570   -20.7950     2.0520 nd         1 RXN      -0.441800
     30 N3         -36.8420   -21.9560     1.3560 na         1 RXN       0.150800
     31 N4         -36.9040   -24.7340     0.1170 nt         1 RXN      -0.602000
     32 Cl         -42.4740   -14.0120     7.2590 cl         1 RXN      -0.191000
     33 H1         -41.2600   -18.3490     9.1910 ha         1 RXN       0.129000
     34 H2         -41.3890   -15.8730     9.1760 ha         1 RXN       0.135000
     35 H3         -43.3440   -15.9800     5.3350 ha         1 RXN       0.145000
     36 H4         -42.0530   -18.3940     3.4980 h1         1 RXN       0.065700
     37 H5         -43.0010   -19.8880     3.5350 h1         1 RXN       0.065700
     38 H6         -40.6360   -19.0960     5.2810 h1         1 RXN       0.112700
     39 H7         -41.3450   -21.3290     2.0860 h1         1 RXN       0.053200
     40 H8         -41.9520   -22.0950     3.5600 h1         1 RXN       0.053200
     41 H9         -40.5510   -23.6250     2.1590 hc         1 RXN       0.079700
     42 H10        -39.9060   -23.4330     3.7900 hc         1 RXN       0.079700
     43 H11        -34.9960   -22.8890     1.0200 h1         1 RXN       0.076200
     44 H12        -34.9640   -21.1350     0.8970 h1         1 RXN       0.076200
     45 H13        -33.7590   -23.1510    -1.0990 ha         1 RXN       0.117000
     46 H14        -33.8900   -23.3080    -3.5730 ha         1 RXN       0.117000
     47 H15        -35.8420   -22.3480    -4.7890 ha         1 RXN       0.116000
     48 H16        -37.6650   -21.2190    -3.5200 ha         1 RXN       0.117000
     49 H17        -42.8490   -20.1960     9.2440 h1         1 RXN       0.048700
     50 H18        -42.9400   -21.6910     8.2860 h1         1 RXN       0.048700
     51 H19        -41.3570   -21.1190     8.8970 h1         1 RXN       0.048700
     52 H20        -37.5510   -21.0490    -1.0530 ha         1 RXN       0.117000
     53 H21        -36.9250   -25.6670    -0.2660 hn         1 RXN       0.316000
     54 H22        -36.2150   -24.0700    -0.1950 hn         1 RXN       0.316000
     55 O3         -41.5920   -21.9470     6.1010 o          1 RXN      -0.537000
     56 C13        -35.5500   -22.0250     0.6370 c3         1 RXN       0.130900
@<TRIPOS>BOND
     1     1    25 2   
     2     2     4 ar  
     3     2     8 ar  
     4     2    20 1   
     5     3    26 2   
     6     4     5 ar  
     7     4    33 1   
     8     5     6 ar  
     9     5    34 1   
    10     6     7 ar  
    11     6    32 1   
    12     7     8 ar  
    13     7    35 1   
    14     8    22 1   
    15     9    10 1   
    16     9    22 1   
    17     9    36 1   
    18     9    37 1   
    19    10    27 1   
    20    10    28 1   
    21    10    38 1   
    22    11    12 1   
    23    11    28 1   
    24    11    39 1   
    25    11    40 1   
    26    12    13 1   
    27    12    41 1   
    28    12    42 1   
    29    13    14 1   
    30    13    24 2   
    31    14    26 1   
    32    14    29 2   
    33    15    16 ar  
    34    15    23 ar  
    35    15    56 1   
    36    16    17 ar  
    37    16    45 1   
    38    17    18 ar  
    39    17    46 1   
    40    18    19 ar  
    41    18    47 1   
    42    19    23 ar  
    43    19    48 1   
    44    20    21 1   
    45    20    27 1   
    46    21    49 1   
    47    21    50 1   
    48    21    51 1   
    49    23    52 1   
    50    24    25 1   
    51    24    30 1   
    52    25    31 1   
    53    26    28 1   
    54    27    55 2   
    55    29    30 1   
    56    30    56 1   
    57    31    53 1   
    58    31    54 1   
    59    43    56 1   
    60    44    56 1   
@<TRIPOS>SUBSTRUCTURE
     1 RXN         1 TEMP              0 ****  ****    0 ROOT
