@<TRIPOS>MOLECULE
RXP
   92    96     1     0     0
SMALL
No Charge or Current Charge


@<TRIPOS>ATOM
      1 N1          -1.0890    -1.6960    -6.1440 nt         1 RXP      -0.597000
      2 N2          -0.4380    -1.0810    -3.4940 ns         1 RXP      -0.511900
      3 C1           0.5860    -1.7700    -4.3200 c3         1 RXP       0.019700
      4 C2           1.3440    -2.8340    -3.4840 c3         1 RXP       0.003800
      5 C3           1.8020    -2.3210    -2.1380 cc         1 RXP      -0.203400
      6 C4           2.8340    -1.3550    -1.8860 ca         1 RXP      -0.090800
      7 C5           1.2690    -2.6430    -0.8910 cd         1 RXP      -0.118100
      8 N3           1.9390    -1.9070     0.1160 na         1 RXP      -0.199700
      9 C6           2.8830    -1.1390    -0.5370 ca         1 RXP      -0.060200
     10 C7           3.6920    -0.6870    -2.7720 ca         1 RXP      -0.069000
     11 C8           3.7940    -0.2380     0.0300 ca         1 RXP      -0.114000
     12 C9           4.6200     0.2280    -2.2300 ca         1 RXP      -0.150000
     13 C10          4.6710     0.4520    -0.8340 ca         1 RXP      -0.118000
     14 C11         -0.0100    -2.3390    -5.6420 c          1 RXP       0.598100
     15 O1           0.4160    -3.3300    -6.2130 o          1 RXP      -0.635100
     16 O2           0.2980     1.0580    -3.7740 o          1 RXP      -0.609100
     17 C12         -0.3960     0.2560    -3.1620 c          1 RXP       0.599100
     18 C13         -2.3870     1.6670    -2.3530 c3         1 RXP      -0.076400
     19 C14         -5.3630     1.6270    -4.9190 ca         1 RXP      -0.065300
     20 C15         -6.5270     0.9020    -4.5960 ca         1 RXP      -0.109000
     21 C16         -7.3620     0.4090    -5.6140 ca         1 RXP      -0.115500
     22 C17         -7.0370     0.6380    -6.9620 ca         1 RXP      -0.124000
     23 C18         -5.8770     1.3590    -7.2910 ca         1 RXP      -0.115500
     24 C19         -5.0420     1.8510    -6.2720 ca         1 RXP      -0.109000
     25 C20         -1.2830     0.6520    -1.9540 c3         1 RXP      -0.094700
     26 C38         -3.3350     1.1530    -3.4640 c3         1 RXP      -0.070400
     27 C39         -4.4550     2.1540    -3.8170 c3         1 RXP      -0.036100
     28 C21         -0.4070     1.1580    -0.7630 c3         1 RXP      -0.437400
     29 P           -1.0780     0.9660     0.9400 p5         1 RXP       1.374000
     30 O1P         -1.6690    -0.4000     1.0960 o          1 RXP      -0.808500
     31 O2P         -2.0660     2.0560     1.2170 o          1 RXP      -0.808500
     32 N4           0.3580     0.5010     3.3540 ns         1 RXP      -0.446900
     33 C22          0.4430     1.1620     2.0180 c3         1 RXP      -0.220300
     34 C23          0.8970     2.6370     2.1500 c3         1 RXP      -0.021100
     35 C24          2.2840     2.7700     2.7690 ca         1 RXP      -0.055300
     36 C25          3.4270     2.7290     1.9470 ca         1 RXP      -0.106000
     37 C26          2.4380     2.9320     4.1600 ca         1 RXP      -0.106000
     38 C27          4.7110     2.8410     2.5090 ca         1 RXP      -0.116500
     39 C28          3.7220     3.0440     4.7230 ca         1 RXP      -0.116500
     40 C29          4.8580     2.9980     3.8980 ca         1 RXP      -0.128000
     41 C30          0.8060    -0.7610     3.6440 c          1 RXP       0.657100
     42 O5           1.3410    -1.5220     2.8520 o          1 RXP      -0.600000
     43 O6           0.5670    -1.0210     4.9570 os         1 RXP      -0.460100
     44 C31          0.9840    -2.2990     5.4620 c3         1 RXP       0.232900
     45 C32          0.6350    -2.3690     6.9430 ca         1 RXP      -0.088300
     46 C33         -0.5830    -2.9400     7.3620 ca         1 RXP      -0.084000
     47 C34         -0.9020    -3.0040     8.7290 ca         1 RXP      -0.121000
     48 C35         -0.0070    -2.4980     9.6860 ca         1 RXP      -0.109000
     49 C36          1.2080    -1.9250     9.2750 ca         1 RXP      -0.121000
     50 C37          1.5280    -1.8600     7.9070 ca         1 RXP      -0.084000
     51 HN11        -1.5210    -2.0340    -6.9900 hn         1 RXP       0.314000
     52 HN22        -1.4540    -0.8880    -5.6620 hn         1 RXP       0.314000
     53 HN2         -1.0490    -1.6570    -2.9280 hn         1 RXP       0.315500
     54 H1           1.3220    -1.0230    -4.6410 h1         1 RXP       0.102700
     55 H21          0.6890    -3.7010    -3.3360 hc         1 RXP       0.050700
     56 H22A         2.2090    -3.1940    -4.0550 hc         1 RXP       0.050700
     57 H5           0.4550    -3.3220    -0.6500 h4         1 RXP       0.224000
     58 HN3          1.7370    -1.9040     1.1190 hn         1 RXP       0.408000
     59 H7           3.6460    -0.8670    -3.8430 ha         1 RXP       0.108000
     60 H8           3.8240    -0.0750     1.1050 ha         1 RXP       0.125000
     61 H9           5.2990     0.7630    -2.8900 ha         1 RXP       0.096000
     62 H10          5.3890     1.1580    -0.4240 ha         1 RXP       0.096000
     63 H131        -2.9860     1.9150    -1.4680 hc         1 RXP       0.067200
     64 H132        -1.9160     2.6010    -2.6860 hc         1 RXP       0.067200
     65 H15         -6.7840     0.7180    -3.5540 ha         1 RXP       0.115000
     66 H16         -8.2590    -0.1500    -5.3580 ha         1 RXP       0.104500
     67 H17         -7.6830     0.2570    -7.7490 ha         1 RXP       0.102000
     68 H18         -5.6240     1.5350    -8.3340 ha         1 RXP       0.104500
     69 H19         -4.1440     2.4050    -6.5350 ha         1 RXP       0.115000
     70 H20         -1.7900    -0.2620    -1.6190 hc         1 RXP       0.062700
     71 H381        -2.7570     0.9390    -4.3710 hc         1 RXP       0.036200
     72 H382        -3.7890     0.2080    -3.1430 hc         1 RXP       0.036200
     73 H391        -5.0420     2.3730    -2.9160 hc         1 RXP       0.050700
     74 H392        -4.0040     3.1060    -4.1260 hc         1 RXP       0.050700
     75 H211         0.5260     0.5860    -0.7450 hc         1 RXP       0.062700
     76 H212        -0.1340     2.2090    -0.9020 hc         1 RXP       0.062700
     77 HN4         -0.0710     0.9930     4.1280 hn         1 RXP       0.326500
     78 H22          1.2110     0.6380     1.4380 h1         1 RXP       0.071700
     79 H231         0.8970     3.1060     1.1590 hc         1 RXP       0.059700
     80 H232         0.1600     3.1930     2.7440 hc         1 RXP       0.059700
     81 H25          3.3200     2.6070     0.8720 ha         1 RXP       0.114000
     82 H26          1.5640     2.9660     4.8060 ha         1 RXP       0.114000
     83 H27          5.5890     2.8050     1.8690 ha         1 RXP       0.101000
     84 H28          3.8350     3.1660     5.7970 ha         1 RXP       0.101000
     85 H29          5.8510     3.0840     4.3330 ha         1 RXP       0.098000
     86 H311         0.4790    -3.1130     4.9250 h1         1 RXP       0.053700
     87 H312         2.0670    -2.4320     5.3350 h1         1 RXP       0.053700
     88 H33         -1.2830    -3.3320     6.6270 ha         1 RXP       0.118500
     89 H34         -1.8440    -3.4470     9.0470 ha         1 RXP       0.107500
     90 H35         -0.2550    -2.5480    10.7440 ha         1 RXP       0.104000
     91 H36          1.9010    -1.5300    10.0140 ha         1 RXP       0.107500
     92 H37          2.4700    -1.4120     7.5960 ha         1 RXP       0.118500
@<TRIPOS>BOND
     1     1    14 1   
     2     1    51 1   
     3     1    52 1   
     4     2     3 1   
     5     2    17 1   
     6     2    53 1   
     7     3     4 1   
     8     3    14 1   
     9     3    54 1   
    10     4     5 1   
    11     4    55 1   
    12     4    56 1   
    13     5     6 1   
    14     5     7 2   
    15     6     9 ar  
    16     6    10 ar  
    17     7     8 1   
    18     7    57 1   
    19     8     9 1   
    20     8    58 1   
    21     9    11 ar  
    22    10    12 ar  
    23    10    59 1   
    24    11    13 ar  
    25    11    60 1   
    26    12    13 ar  
    27    12    61 1   
    28    13    62 1   
    29    14    15 2   
    30    16    17 2   
    31    17    25 1   
    32    18    25 1   
    33    18    26 1   
    34    18    63 1   
    35    18    64 1   
    36    19    20 ar  
    37    19    24 ar  
    38    19    27 1   
    39    20    21 ar  
    40    20    65 1   
    41    21    22 ar  
    42    21    66 1   
    43    22    23 ar  
    44    22    67 1   
    45    23    24 ar  
    46    23    68 1   
    47    24    69 1   
    48    25    28 1   
    49    25    70 1   
    50    26    27 1   
    51    26    71 1   
    52    26    72 1   
    53    27    73 1   
    54    27    74 1   
    55    28    29 1   
    56    28    75 1   
    57    28    76 1   
    58    29    30 1   
    59    29    31 1   
    60    29    33 1   
    61    32    33 1   
    62    32    41 1   
    63    32    77 1   
    64    33    34 1   
    65    33    78 1   
    66    34    35 1   
    67    34    79 1   
    68    34    80 1   
    69    35    36 ar  
    70    35    37 ar  
    71    36    38 ar  
    72    36    81 1   
    73    37    39 ar  
    74    37    82 1   
    75    38    40 ar  
    76    38    83 1   
    77    39    40 ar  
    78    39    84 1   
    79    40    85 1   
    80    41    42 2   
    81    41    43 1   
    82    43    44 1   
    83    44    45 1   
    84    44    86 1   
    85    44    87 1   
    86    45    46 ar  
    87    45    50 ar  
    88    46    47 ar  
    89    46    88 1   
    90    47    48 ar  
    91    47    89 1   
    92    48    49 ar  
    93    48    90 1   
    94    49    50 ar  
    95    49    91 1   
    96    50    92 1   
@<TRIPOS>SUBSTRUCTURE
     1 RXP         1 TEMP              0 ****  ****    0 ROOT
