@<TRIPOS>MOLECULE
RXP
   92    96     1     0     0
SMALL
abcg2


@<TRIPOS>ATOM
      1 N1          -0.8860    -2.1520    -5.8970 nt         1 RXP      -0.597000
      2 N2          -0.2240    -1.1300    -3.4690 ns         1 RXP      -0.511900
      3 C1           0.8530    -1.6460    -4.2740 c3         1 RXP       0.019700
      4 C2           1.5860    -2.7580    -3.4940 c3         1 RXP       0.003800
      5 C3           2.0550    -2.2800    -2.1620 cc         1 RXP      -0.203400
      6 C4           3.1710    -1.4190    -1.9040 ca         1 RXP      -0.090800
      7 C5           1.4480    -2.4810    -0.9520 cd         1 RXP      -0.118100
      8 N3           2.1250    -1.8310     0.0350 na         1 RXP      -0.199700
      9 C6           3.1790    -1.1620    -0.5140 ca         1 RXP      -0.060200
     10 C7           4.1630    -0.8450    -2.7080 ca         1 RXP      -0.069000
     11 C8           4.1410    -0.3480     0.0840 ca         1 RXP      -0.114000
     12 C9           5.1170    -0.0370    -2.1190 ca         1 RXP      -0.150000
     13 C10          5.1030     0.2100    -0.7350 ca         1 RXP      -0.118000
     14 C11          0.4250    -2.1620    -5.6440 c          1 RXP       0.598100
     15 O1           1.2700    -2.5600    -6.4350 o          1 RXP      -0.635100
     16 O2           0.0160     1.0510    -4.0110 o          1 RXP      -0.609100
     17 C12         -0.4420     0.1920    -3.2740 c          1 RXP       0.599100
     18 C13         -2.2970     1.5750    -2.2700 c3         1 RXP      -0.076400
     19 C14         -5.5610     1.7140    -4.3480 ca         1 RXP      -0.065300
     20 C15         -6.7210     1.1010    -3.8790 ca         1 RXP      -0.109000
     21 C16         -7.6930     0.6420    -4.7600 ca         1 RXP      -0.115500
     22 C17         -7.5180     0.7880    -6.1300 ca         1 RXP      -0.124000
     23 C18         -6.3650     1.3970    -6.6100 ca         1 RXP      -0.115500
     24 C19         -5.3980     1.8550    -5.7250 ca         1 RXP      -0.109000
     25 C20         -1.2320     0.5150    -2.0220 c3         1 RXP      -0.094700
     26 C38         -3.3840     1.1220    -3.2350 c3         1 RXP      -0.070400
     27 C39         -4.4880     2.1680    -3.3990 c3         1 RXP      -0.036100
     28 C21         -0.2050     0.9470    -0.9570 c3         1 RXP      -0.437400
     29 P           -0.7900     0.6190     0.7580 p5         1 RXP       1.374000
     30 O1P         -1.0150    -0.8700     0.9050 o          1 RXP      -0.808500
     31 O2P         -1.8980     1.5790     1.1440 o          1 RXP      -0.808500
     32 N4           0.5350     0.5370     3.1050 ns         1 RXP      -0.446900
     33 C22          0.7180     1.0560     1.7670 c3         1 RXP      -0.220300
     34 C23          1.0080     2.5570     1.8180 c3         1 RXP      -0.021100
     35 C24          2.3140     2.8500     2.5000 ca         1 RXP      -0.055300
     36 C25          3.5060     2.8000     1.7800 ca         1 RXP      -0.106000
     37 C26          2.3760     3.1240     3.8640 ca         1 RXP      -0.106000
     38 C27          4.7280     3.0110     2.4030 ca         1 RXP      -0.116500
     39 C28          3.5960     3.3380     4.4930 ca         1 RXP      -0.116500
     40 C29          4.7770     3.2810     3.7650 ca         1 RXP      -0.128000
     41 C30          0.9670    -0.6660     3.5000 c          1 RXP       0.657100
     42 O5           1.7170    -1.4010     2.8770 o          1 RXP      -0.600000
     43 O6           0.5020    -0.9690     4.7170 os         1 RXP      -0.460100
     44 C31          0.8980    -2.2290     5.2720 c3         1 RXP       0.232900
     45 C32          0.2790    -2.3180     6.6330 ca         1 RXP      -0.088300
     46 C33         -0.9990    -2.8460     6.7920 ca         1 RXP      -0.084000
     47 C34         -1.5840    -2.9100     8.0490 ca         1 RXP      -0.121000
     48 C35         -0.8940    -2.4420     9.1610 ca         1 RXP      -0.109000
     49 C36          0.3810    -1.9120     9.0100 ca         1 RXP      -0.121000
     50 C37          0.9620    -1.8500     7.7510 ca         1 RXP      -0.084000
     51 HN11        -1.2390    -2.4900    -6.7770 hn         1 RXP       0.314000
     52 HN22        -1.5480    -1.8230    -5.2160 hn         1 RXP       0.314000
     53 HN2         -0.6060    -1.7540    -2.7750 hn         1 RXP       0.315500
     54 H1           1.5580    -0.8320    -4.4610 h1         1 RXP       0.102700
     55 H21          0.9100    -3.6100    -3.3710 hc         1 RXP       0.050700
     56 H22A         2.4220    -3.1100    -4.1000 hc         1 RXP       0.050700
     57 H5           0.5640    -3.0540    -0.7210 h4         1 RXP       0.224000
     58 HN3          1.8350    -1.7620     1.0060 hn         1 RXP       0.408000
     59 H7           4.1860    -1.0290    -3.7750 ha         1 RXP       0.108000
     60 H8           4.1300    -0.1530     1.1490 ha         1 RXP       0.125000
     61 H9           5.8880     0.4160    -2.7280 ha         1 RXP       0.096000
     62 H10          5.8620     0.8490    -0.3010 ha         1 RXP       0.096000
     63 H131        -2.7430     1.8360    -1.3070 hc         1 RXP       0.067200
     64 H132        -1.8220     2.4860    -2.6450 hc         1 RXP       0.067200
     65 H15         -6.8700     0.9860    -2.8120 ha         1 RXP       0.115000
     66 H16         -8.5880     0.1720    -4.3750 ha         1 RXP       0.104500
     67 H17         -8.2750     0.4330    -6.8170 ha         1 RXP       0.102000
     68 H18         -6.2200     1.5200    -7.6760 ha         1 RXP       0.104500
     69 H19         -4.5030     2.3300    -6.1100 ha         1 RXP       0.115000
     70 H20         -1.7230    -0.4000    -1.6690 hc         1 RXP       0.062700
     71 H381        -2.9540     0.9050    -4.2190 hc         1 RXP       0.036200
     72 H382        -3.8260     0.1850    -2.8810 hc         1 RXP       0.036200
     73 H391        -4.9240     2.3840    -2.4200 hc         1 RXP       0.050700
     74 H392        -4.0470     3.1020    -3.7580 hc         1 RXP       0.050700
     75 H211         0.7220     0.3790    -1.0810 hc         1 RXP       0.062700
     76 H212         0.0470     2.0010    -1.1010 hc         1 RXP       0.062700
     77 HN4         -0.1520     0.9970     3.6840 hn         1 RXP       0.326500
     78 H22          1.5800     0.5540     1.3260 h1         1 RXP       0.071700
     79 H231         1.0340     2.9410     0.7960 hc         1 RXP       0.059700
     80 H232         0.1840     3.0690     2.3200 hc         1 RXP       0.059700
     81 H25          3.4770     2.5900     0.7170 ha         1 RXP       0.114000
     82 H26          1.4610     3.1770     4.4420 ha         1 RXP       0.114000
     83 H27          5.6420     2.9650     1.8240 ha         1 RXP       0.101000
     84 H28          3.6230     3.5500     5.5540 ha         1 RXP       0.101000
     85 H29          5.7280     3.4490     4.2550 ha         1 RXP       0.098000
     86 H311         0.5500    -3.0440     4.6350 h1         1 RXP       0.053700
     87 H312         1.9860    -2.2870     5.3380 h1         1 RXP       0.053700
     88 H33         -1.5380    -3.2170     5.9280 ha         1 RXP       0.118500
     89 H34         -2.5760    -3.3290     8.1630 ha         1 RXP       0.107500
     90 H35         -1.3470    -2.4970    10.1420 ha         1 RXP       0.104000
     91 H36          0.9230    -1.5520     9.8740 ha         1 RXP       0.107500
     92 H37          1.9590    -1.4390     7.6380 ha         1 RXP       0.118500
@<TRIPOS>BOND
     1     1    14 1   
     2     1    51 1   
     3     1    52 1   
     4     2     3 1   
     5     2    17 1   
     6     2    53 1   
     7     3     4 1   
     8     3    14 1   
     9     3    54 1   
    10     4     5 1   
    11     4    55 1   
    12     4    56 1   
    13     5     6 1   
    14     5     7 2   
    15     6     9 ar  
    16     6    10 ar  
    17     7     8 1   
    18     7    57 1   
    19     8     9 1   
    20     8    58 1   
    21     9    11 ar  
    22    10    12 ar  
    23    10    59 1   
    24    11    13 ar  
    25    11    60 1   
    26    12    13 ar  
    27    12    61 1   
    28    13    62 1   
    29    14    15 2   
    30    16    17 2   
    31    17    25 1   
    32    18    25 1   
    33    18    26 1   
    34    18    63 1   
    35    18    64 1   
    36    19    20 ar  
    37    19    24 ar  
    38    19    27 1   
    39    20    21 ar  
    40    20    65 1   
    41    21    22 ar  
    42    21    66 1   
    43    22    23 ar  
    44    22    67 1   
    45    23    24 ar  
    46    23    68 1   
    47    24    69 1   
    48    25    28 1   
    49    25    70 1   
    50    26    27 1   
    51    26    71 1   
    52    26    72 1   
    53    27    73 1   
    54    27    74 1   
    55    28    29 1   
    56    28    75 1   
    57    28    76 1   
    58    29    30 1   
    59    29    31 1   
    60    29    33 1   
    61    32    33 1   
    62    32    41 1   
    63    32    77 1   
    64    33    34 1   
    65    33    78 1   
    66    34    35 1   
    67    34    79 1   
    68    34    80 1   
    69    35    36 ar  
    70    35    37 ar  
    71    36    38 ar  
    72    36    81 1   
    73    37    39 ar  
    74    37    82 1   
    75    38    40 ar  
    76    38    83 1   
    77    39    40 ar  
    78    39    84 1   
    79    40    85 1   
    80    41    42 2   
    81    41    43 1   
    82    43    44 1   
    83    44    45 1   
    84    44    86 1   
    85    44    87 1   
    86    45    46 ar  
    87    45    50 ar  
    88    46    47 ar  
    89    46    88 1   
    90    47    48 ar  
    91    47    89 1   
    92    48    49 ar  
    93    48    90 1   
    94    49    50 ar  
    95    49    91 1   
    96    50    92 1   
@<TRIPOS>SUBSTRUCTURE
     1 RXP         1 TEMP              0 ****  ****    0 ROOT
