@<TRIPOS>MOLECULE
RXQ
   52    56     1     0     0
SMALL
No Charge or Current Charge


@<TRIPOS>ATOM
      1 N1         -19.0730    43.1410   -11.2430 na         1 RXQ      -0.310400
      2 C2         -22.8600    38.8860   -14.2880 ca         1 RXQ      -0.021000
      3 O2         -18.0950    40.4170   -14.8800 o          1 RXQ      -0.501100
      4 C4         -23.4130    36.5530   -11.7140 ca         1 RXQ      -0.308500
      5 C5         -22.5220    36.4070   -10.6300 ca         1 RXQ      -0.012000
      6 C6         -22.7950    37.0420    -9.4060 ca         1 RXQ      -0.131500
      7 N2         -16.9810    44.4070   -11.3820 nb         1 RXQ      -0.673000
      8 C7         -23.9530    37.8240    -9.2580 ca         1 RXQ      -0.048000
      9 C8         -24.8410    37.9710   -10.3370 ca         1 RXQ      -0.131500
     10 C          -21.4750    40.8880   -14.3490 ca         1 RXQ       0.224000
     11 C1         -22.7360    40.2810   -14.4180 ca         1 RXQ      -0.168000
     12 C10        -20.4480    38.7130   -14.0370 ca         1 RXQ       0.205000
     13 C11        -20.3220    40.1110   -14.1460 ca         1 RXQ      -0.244600
     14 C12        -18.9690    40.7450   -14.0890 c          1 RXQ       0.642900
     15 C13        -18.7790    41.8250   -13.0810 cc         1 RXQ      -0.237400
     16 C14        -19.6380    42.1040   -12.0230 cd         1 RXQ      -0.076100
     17 C15        -17.8580    43.4790   -11.8030 ca         1 RXQ       0.353500
     18 C16        -15.8440    44.5580   -12.1100 ca         1 RXQ       0.366900
     19 C17        -15.5290    43.8010   -13.2770 cp         1 RXQ      -0.107000
     20 C18        -16.4810    42.8330   -13.6880 ca         1 RXQ      -0.011000
     21 C19        -17.6430    42.6970   -12.9160 ca         1 RXQ      -0.086800
     22 C20        -14.2560    44.0200   -14.0340 cp         1 RXQ      -0.030000
     23 C21        -13.6590    45.3050   -14.1080 ca         1 RXQ      -0.092000
     24 C22        -12.4630    45.5100   -14.8190 ca         1 RXQ      -0.102000
     25 C23        -11.8390    44.4340   -15.4680 ca         1 RXQ       0.122000
     26 C24        -12.4090    43.1540   -15.4090 ca         1 RXQ      -0.102000
     27 C25        -13.6050    42.9480   -14.6990 ca         1 RXQ      -0.092000
     28 C3         -21.7170    38.0820   -14.0930 ca         1 RXQ       0.172000
     29 C9         -24.5750    37.3390   -11.5640 ca         1 RXQ      -0.012000
     30 F1         -19.3400    37.9580   -13.8350 f          1 RXQ      -0.160000
     31 N          -21.8150    36.6840   -13.9540 nu         1 RXQ      -0.860100
     32 O          -22.3750    34.4790   -13.0440 o          1 RXQ      -0.526000
     33 O1         -24.1690    35.8960   -14.2150 o          1 RXQ      -0.526000
     34 S          -23.0470    35.7570   -13.2830 sy         1 RXQ       1.146600
     35 Cl         -10.3430    44.6910   -16.3570 cl         1 RXQ      -0.200000
     36 H1         -19.4660    43.5580   -10.4080 hn         1 RXQ       0.366000
     37 H2         -23.8460    38.4390   -14.3570 ha         1 RXQ       0.154000
     38 H3         -21.6190    35.8070   -10.7320 ha         1 RXQ       0.136000
     39 H4         -22.1070    36.9280    -8.5720 ha         1 RXQ       0.117000
     40 H5         -24.1620    38.3150    -8.3100 ha         1 RXQ       0.120000
     41 H6         -25.7370    38.5770   -10.2230 ha         1 RXQ       0.117000
     42 H7         -23.6190    40.8920   -14.5820 ha         1 RXQ       0.148000
     43 H8         -20.5870    41.6410   -11.7580 h4         1 RXQ       0.223000
     44 H9         -15.1470    45.3080   -11.7370 h4         1 RXQ       0.026100
     45 H10        -16.3220    42.2300   -14.5770 ha         1 RXQ       0.146000
     46 H11        -14.1310    46.1560   -13.6240 ha         1 RXQ       0.120500
     47 H12        -12.0220    46.5030   -14.8690 ha         1 RXQ       0.131500
     48 H13        -11.9220    42.3200   -15.9090 ha         1 RXQ       0.131500
     49 H14        -14.0200    41.9450   -14.6540 ha         1 RXQ       0.120500
     50 H15        -25.2740    37.4640   -12.3900 ha         1 RXQ       0.136000
     51 H16        -20.9610    36.1780   -13.7550 hn         1 RXQ       0.500000
     52 F          -21.3830    42.2250   -14.5200 f          1 RXQ      -0.159000
@<TRIPOS>BOND
     1     1    16 1   
     2     1    17 1   
     3     1    36 1   
     4     2    11 ar  
     5     2    28 ar  
     6     2    37 1   
     7     3    14 2   
     8     4     5 ar  
     9     4    29 ar  
    10     4    34 1   
    11     5     6 ar  
    12     5    38 1   
    13     6     8 ar  
    14     6    39 1   
    15     7    17 ar  
    16     7    18 ar  
    17     8     9 ar  
    18     8    40 1   
    19     9    29 ar  
    20     9    41 1   
    21    10    11 ar  
    22    10    13 ar  
    23    10    52 1   
    24    11    42 1   
    25    12    13 ar  
    26    12    28 ar  
    27    12    30 1   
    28    13    14 1   
    29    14    15 1   
    30    15    16 2   
    31    15    21 1   
    32    16    43 1   
    33    17    21 ar  
    34    18    19 ar  
    35    18    44 1   
    36    19    20 ar  
    37    19    22 1   
    38    20    21 ar  
    39    20    45 1   
    40    22    23 ar  
    41    22    27 ar  
    42    23    24 ar  
    43    23    46 1   
    44    24    25 ar  
    45    24    47 1   
    46    25    26 ar  
    47    25    35 1   
    48    26    27 ar  
    49    26    48 1   
    50    27    49 1   
    51    28    31 1   
    52    29    50 1   
    53    31    34 1   
    54    31    51 1   
    55    32    34 2   
    56    33    34 2   
@<TRIPOS>SUBSTRUCTURE
     1 RXQ         1 TEMP              0 ****  ****    0 ROOT
