@<TRIPOS>MOLECULE
RXQ
   52    56     1     0     0
SMALL
abcg2


@<TRIPOS>ATOM
      1 N1         -20.1010    42.8010   -11.7250 na         1 RXQ      -0.310400
      2 C2         -23.5000    38.6640   -15.0950 ca         1 RXQ      -0.021000
      3 O2         -18.8670    40.4930   -15.4670 o          1 RXQ      -0.501100
      4 C4         -22.1520    37.3840   -11.5100 ca         1 RXQ      -0.308500
      5 C5         -20.9450    36.8750   -11.0490 ca         1 RXQ      -0.012000
      6 C6         -20.1370    37.6770   -10.2600 ca         1 RXQ      -0.131500
      7 N2         -17.9980    43.8680   -11.3150 nb         1 RXQ      -0.673000
      8 C7         -20.5340    38.9700    -9.9420 ca         1 RXQ      -0.048000
      9 C8         -21.7470    39.4620   -10.4030 ca         1 RXQ      -0.131500
     10 C          -22.2070    40.6450   -15.3400 ca         1 RXQ       0.224000
     11 C1         -23.4130    39.9890   -15.4860 ca         1 RXQ      -0.168000
     12 C10        -21.2140    38.7110   -14.4290 ca         1 RXQ       0.205000
     13 C11        -21.0840    40.0310   -14.8130 ca         1 RXQ      -0.244600
     14 C12        -19.7570    40.7280   -14.6740 c          1 RXQ       0.642900
     15 C13        -19.6120    41.6200   -13.5550 cc         1 RXQ      -0.237400
     16 C14        -20.5920    41.9430   -12.6370 cd         1 RXQ      -0.076100
     17 C15        -18.7850    43.0690   -12.0070 ca         1 RXQ       0.353500
     18 C16        -16.7610    43.9710   -11.7700 ca         1 RXQ       0.366900
     19 C17        -16.2710    43.3020   -12.9050 cp         1 RXQ      -0.107000
     20 C18        -17.1300    42.4680   -13.6140 ca         1 RXQ      -0.011000
     21 C19        -18.4350    42.3400   -13.1570 ca         1 RXQ      -0.086800
     22 C20        -14.8670    43.4770   -13.3210 cp         1 RXQ      -0.030000
     23 C21        -14.2520    44.7290   -13.2810 ca         1 RXQ      -0.092000
     24 C22        -12.9350    44.8930   -13.6800 ca         1 RXQ      -0.102000
     25 C23        -12.2200    43.7920   -14.1230 ca         1 RXQ       0.122000
     26 C24        -12.8040    42.5360   -14.1730 ca         1 RXQ      -0.102000
     27 C25        -14.1220    42.3880   -13.7720 ca         1 RXQ      -0.092000
     28 C3         -22.4030    38.0040   -14.5570 ca         1 RXQ       0.172000
     29 C9         -22.5670    38.6710   -11.1940 ca         1 RXQ      -0.012000
     30 F1         -20.1530    38.0980   -13.9020 f          1 RXQ      -0.160000
     31 N          -22.5010    36.6650   -14.1210 nu         1 RXQ      -0.860100
     32 O          -22.9090    34.9930   -12.3290 o          1 RXQ      -0.526000
     33 O1         -24.4820    36.9470   -12.6050 o          1 RXQ      -0.526000
     34 S          -23.1410    36.3990   -12.5980 sy         1 RXQ       1.146600
     35 CL         -10.5730    43.9880   -14.6220 cl         1 RXQ      -0.200000
     36 H1         -20.6240    43.2090   -10.9660 hn         1 RXQ       0.366000
     37 H2         -24.4320    38.1290   -15.2110 ha         1 RXQ       0.154000
     38 H3         -20.6340    35.8670   -11.2930 ha         1 RXQ       0.136000
     39 H4         -19.1960    37.2910    -9.8910 ha         1 RXQ       0.117000
     40 H5         -19.8990    39.5920    -9.3260 ha         1 RXQ       0.120000
     41 H6         -22.0640    40.4620   -10.1390 ha         1 RXQ       0.117000
     42 H7         -24.2680    40.5020   -15.9050 ha         1 RXQ       0.148000
     43 H8         -21.6170    41.6110   -12.5820 h4         1 RXQ       0.223000
     44 H9         -16.0960    44.6110   -11.1990 h4         1 RXQ       0.026100
     45 H10        -16.7930    41.9530   -14.5030 ha         1 RXQ       0.146000
     46 H11        -14.8090    45.5990   -12.9590 ha         1 RXQ       0.120500
     47 H12        -12.4790    45.8730   -13.6580 ha         1 RXQ       0.131500
     48 H13        -12.2410    41.6780   -14.5120 ha         1 RXQ       0.131500
     49 H14        -14.5640    41.4000   -13.7940 ha         1 RXQ       0.120500
     50 H15        -23.5140    39.0540   -11.5470 ha         1 RXQ       0.136000
     51 H16        -21.6880    36.0860   -14.2970 hn         1 RXQ       0.500000
     52 F          -22.1040    41.9200   -15.7200 f          1 RXQ      -0.159000
@<TRIPOS>BOND
     1     1    16 1   
     2     1    17 1   
     3     1    36 1   
     4     2    11 ar  
     5     2    28 ar  
     6     2    37 1   
     7     3    14 2   
     8     4     5 ar  
     9     4    29 ar  
    10     4    34 1   
    11     5     6 ar  
    12     5    38 1   
    13     6     8 ar  
    14     6    39 1   
    15     7    17 ar  
    16     7    18 ar  
    17     8     9 ar  
    18     8    40 1   
    19     9    29 ar  
    20     9    41 1   
    21    10    11 ar  
    22    10    13 ar  
    23    10    52 1   
    24    11    42 1   
    25    12    13 ar  
    26    12    28 ar  
    27    12    30 1   
    28    13    14 1   
    29    14    15 1   
    30    15    16 2   
    31    15    21 1   
    32    16    43 1   
    33    17    21 ar  
    34    18    19 ar  
    35    18    44 1   
    36    19    20 ar  
    37    19    22 1   
    38    20    21 ar  
    39    20    45 1   
    40    22    23 ar  
    41    22    27 ar  
    42    23    24 ar  
    43    23    46 1   
    44    24    25 ar  
    45    24    47 1   
    46    25    26 ar  
    47    25    35 1   
    48    26    27 ar  
    49    26    48 1   
    50    27    49 1   
    51    28    31 1   
    52    29    50 1   
    53    31    34 1   
    54    31    51 1   
    55    32    34 2   
    56    33    34 2   
@<TRIPOS>SUBSTRUCTURE
     1 RXQ         1 TEMP              0 ****  ****    0 ROOT
