@<TRIPOS>MOLECULE
RXS
   26    27     1     0     0
SMALL
No Charge or Current Charge


@<TRIPOS>ATOM
      1 N1          14.9680   -18.6990   -15.0590 na         1 RXS      -0.174500
      2 C4          15.1190   -18.2010   -13.6810 c3         1 RXS       0.119900
      3 C5          13.7910   -17.9300   -12.9820 ca         1 RXS      -0.117300
      4 C6          12.7560   -18.8870   -13.0140 ca         1 RXS      -0.071000
      5 C7          11.5320   -18.6290   -12.3750 ca         1 RXS      -0.111000
      6 C8          11.3310   -17.4150   -11.6980 ca         1 RXS      -0.066000
      7 C10         12.1570   -15.2100   -10.9650 cg         1 RXS       0.319000
      8 N           14.4160   -18.7700   -17.2230 nc         1 RXS      -0.674000
      9 C           13.8140   -16.6390   -16.0850 c3         1 RXS      -0.124400
     10 C1          14.3960   -18.0250   -16.1280 cd         1 RXS       0.411800
     11 C11         13.5870   -16.7150   -12.2970 ca         1 RXS      -0.069000
     12 C2          15.0100   -19.9450   -16.8580 cc         1 RXS       0.236900
     13 C3          15.3630   -19.9390   -15.5350 cd         1 RXS      -0.235000
     14 C9          12.3590   -16.4530   -11.6570 ca         1 RXS      -0.015000
     15 N2          11.9980   -14.1950   -10.4080 n1         1 RXS      -0.445000
     16 H1          15.6830   -18.9400   -13.0990 h1         1 RXS       0.069200
     17 H2          15.7200   -17.2820   -13.7120 h1         1 RXS       0.069200
     18 H3          12.9000   -19.8330   -13.5340 ha         1 RXS       0.131000
     19 H4          10.7370   -19.3720   -12.4050 ha         1 RXS       0.126000
     20 H5          10.3790   -17.2230   -11.2070 ha         1 RXS       0.130000
     21 H6          13.5970   -16.2650   -17.0920 hc         1 RXS       0.055367
     22 H7          12.8780   -16.6300   -15.5140 hc         1 RXS       0.055367
     23 H8          14.5080   -15.9370   -15.6100 hc         1 RXS       0.055367
     24 H9          14.3810   -15.9700   -12.2660 ha         1 RXS       0.125000
     25 H10         15.1490   -20.7370   -17.5830 h4         1 RXS       0.039100
     26 H11         15.8440   -20.6970   -14.9280 h4         1 RXS       0.156000
@<TRIPOS>BOND
     1     1     2 1   
     2     1    10 1   
     3     1    13 1   
     4     2     3 1   
     5     2    16 1   
     6     2    17 1   
     7     3     4 ar  
     8     3    11 ar  
     9     4     5 ar  
    10     4    18 1   
    11     5     6 ar  
    12     5    19 1   
    13     6    14 ar  
    14     6    20 1   
    15     7    14 1   
    16     7    15 3   
    17     8    10 2   
    18     8    12 1   
    19     9    10 1   
    20     9    21 1   
    21     9    22 1   
    22     9    23 1   
    23    11    14 ar  
    24    11    24 1   
    25    12    13 2   
    26    12    25 1   
    27    13    26 1   
@<TRIPOS>SUBSTRUCTURE
     1 RXS         1 TEMP              0 ****  ****    0 ROOT
