@<TRIPOS>MOLECULE
RXS
   26    27     1     0     0
SMALL
bcc


@<TRIPOS>ATOM
      1 N1          14.9380   -18.6160   -15.0710 na         1 RXS      -0.195900
      2 C4          15.0630   -17.9480   -13.7990 c3         1 RXS       0.090600
      3 C5          13.7480   -17.7940   -13.0740 ca         1 RXS      -0.117300
      4 C6          12.7160   -18.7150   -13.2240 ca         1 RXS      -0.089000
      5 C7          11.5270   -18.5730   -12.5220 ca         1 RXS      -0.129000
      6 C8          11.3490   -17.5100   -11.6530 ca         1 RXS      -0.084000
      7 C10         12.2140   -15.4790   -10.6150 cg         1 RXS       0.229800
      8 N           14.4000   -18.9700   -17.1730 nc         1 RXS      -0.674000
      9 C           13.9470   -16.6790   -16.2990 c3         1 RXS      -0.124400
     10 C1          14.4150   -18.0850   -16.2060 cd         1 RXS       0.411800
     11 C11         13.5730   -16.7230   -12.2100 ca         1 RXS      -0.087000
     12 C2          14.9260   -20.1160   -16.6430 cc         1 RXS       0.302200
     13 C3          15.2650   -19.9200   -15.3390 cd         1 RXS      -0.267600
     14 C9          12.3810   -16.5860   -11.5010 ca         1 RXS      -0.015000
     15 N2          12.0790   -14.5850    -9.9000 n1         1 RXS      -0.355800
     16 H1          15.7550   -18.5280   -13.1860 h1         1 RXS       0.069200
     17 H2          15.5240   -16.9700   -13.9450 h1         1 RXS       0.069200
     18 H3          12.8310   -19.5550   -13.8990 ha         1 RXS       0.149000
     19 H4          10.7340   -19.2960   -12.6540 ha         1 RXS       0.144000
     20 H5          10.4250   -17.3940   -11.1040 ha         1 RXS       0.148000
     21 H6          13.5660   -16.4910   -17.2990 hc         1 RXS       0.055367
     22 H7          13.1490   -16.4660   -15.5850 hc         1 RXS       0.055367
     23 H8          14.7540   -15.9690   -16.1080 hc         1 RXS       0.055367
     24 H9          14.3590   -15.9880   -12.0830 ha         1 RXS       0.143000
     25 H10         15.0360   -21.0170   -17.2280 h4         1 RXS       0.039100
     26 H11         15.7010   -20.5650   -14.5940 h4         1 RXS       0.174000
@<TRIPOS>BOND
     1     1     2 1   
     2     1    10 1   
     3     1    13 1   
     4     2     3 1   
     5     2    16 1   
     6     2    17 1   
     7     3     4 ar  
     8     3    11 ar  
     9     4     5 ar  
    10     4    18 1   
    11     5     6 ar  
    12     5    19 1   
    13     6    14 ar  
    14     6    20 1   
    15     7    14 1   
    16     7    15 3   
    17     8    10 2   
    18     8    12 1   
    19     9    10 1   
    20     9    21 1   
    21     9    22 1   
    22     9    23 1   
    23    11    14 ar  
    24    11    24 1   
    25    12    13 2   
    26    12    25 1   
    27    13    26 1   
@<TRIPOS>SUBSTRUCTURE
     1 RXS         1 TEMP              0 ****  ****    0 ROOT
