@<TRIPOS>MOLECULE
RXT
   41    44     1     0     0
SMALL
bcc


@<TRIPOS>ATOM
      1 CAK         -4.9530    -0.2880     0.6430 c5         1 RXT      -0.076400
      2 CAH         -5.4570    -1.5370     1.3860 c5         1 RXT      -0.078400
      3 CAI         -4.3000    -2.5600     1.3330 c5         1 RXT      -0.078400
      4 CAL         -3.2430    -1.9420     0.4130 c5         1 RXT      -0.076400
      5 CAU         -3.4290    -0.4380     0.6130 c5         1 RXT      -0.087700
      6 CAV         -2.7720     0.4100    -0.4670 c3         1 RXT       0.076000
      7 CAJ         -2.9820     1.9090    -0.2110 c3         1 RXT      -0.030300
      8 CAB         -2.3240     2.7280    -1.2150 c1         1 RXT       0.202700
      9 NAA         -1.8000     3.3680    -2.0140 n1         1 RXT      -0.347800
     10 NAW         -1.3560     0.1150    -0.6010 na         1 RXT       0.105400
     11 CAG         -0.3970     0.2670     0.3210 cc         1 RXT      -0.073300
     12 NAO         -0.8880    -0.3780    -1.7480 nc         1 RXT      -0.525800
     13 CAF          0.4020    -0.5450    -1.5590 cd         1 RXT       0.342200
     14 CAQ          0.7870    -0.1520    -0.2590 cd         1 RXT      -0.351800
     15 CAR          2.0890    -0.1590     0.3820 ca         1 RXT       0.610800
     16 NAM          2.1220     0.1860     1.6710 nb         1 RXT      -0.761000
     17 CAE          3.2870     0.2020     2.3100 ca         1 RXT       0.669900
     18 NAP          4.4770    -0.0920     1.8180 nb         1 RXT      -0.726000
     19 CAT          4.4420    -0.4310     0.5370 ca         1 RXT       0.453800
     20 CAS          3.2820    -0.4940    -0.2680 ca         1 RXT      -0.317400
     21 CAD          3.7110    -0.8930    -1.5720 cc         1 RXT      -0.158200
     22 CAC          5.0620    -1.0510    -1.5000 cd         1 RXT      -0.114100
     23 NAN          5.5000    -0.7740    -0.2320 na         1 RXT      -0.272100
     24 H1          -5.3270    -0.2790    -0.3850 hc         1 RXT       0.049950
     25 H2          -5.2830     0.6400     1.1130 hc         1 RXT       0.049950
     26 H3          -5.7110    -1.2970     2.4190 hc         1 RXT       0.045450
     27 H4          -6.3650    -1.9230     0.9240 hc         1 RXT       0.045450
     28 H5          -3.8800    -2.7070     2.3300 hc         1 RXT       0.045450
     29 H6          -4.6230    -3.5400     0.9810 hc         1 RXT       0.045450
     30 H7          -2.2330    -2.2850     0.6430 hc         1 RXT       0.049950
     31 H8          -3.4460    -2.1980    -0.6320 hc         1 RXT       0.049950
     32 H9          -3.0210    -0.1560     1.5910 hc         1 RXT       0.058700
     33 H10         -3.2060     0.1570    -1.4340 h1         1 RXT       0.097700
     34 H11         -4.0490     2.1390    -0.2260 hc         1 RXT       0.080700
     35 H12         -2.6080     2.1990     0.7740 hc         1 RXT       0.080700
     36 H18         -0.5930     0.6510     1.3090 h4         1 RXT       0.188000
     37 H19          1.0070    -0.9480    -2.3550 h4         1 RXT       0.041100
     38 H20          3.2530     0.4890     3.3550 h5         1 RXT       0.045100
     39 H21          3.1190    -1.0500    -2.4580 ha         1 RXT       0.159000
     40 H22          5.7610    -1.3440    -2.2660 h4         1 RXT       0.167000
     41 H23          6.4570    -0.8140     0.0790 hn         1 RXT       0.312700
@<TRIPOS>BOND
     1     1     2 1   
     2     1     5 1   
     3     1    24 1   
     4     1    25 1   
     5     2     3 1   
     6     2    26 1   
     7     2    27 1   
     8     3     4 1   
     9     3    28 1   
    10     3    29 1   
    11     4     5 1   
    12     4    30 1   
    13     4    31 1   
    14     5     6 1   
    15     5    32 1   
    16     6     7 1   
    17     6    10 1   
    18     6    33 1   
    19     7     8 1   
    20     7    34 1   
    21     7    35 1   
    22     8     9 3   
    23    10    11 1   
    24    10    12 1   
    25    11    14 2   
    26    11    36 1   
    27    12    13 2   
    28    13    14 1   
    29    13    37 1   
    30    14    15 1   
    31    15    16 ar  
    32    15    20 ar  
    33    16    17 ar  
    34    17    18 ar  
    35    17    38 1   
    36    18    19 ar  
    37    19    20 ar  
    38    19    23 1   
    39    20    21 1   
    40    21    22 2   
    41    21    39 1   
    42    22    23 1   
    43    22    40 1   
    44    23    41 1   
@<TRIPOS>SUBSTRUCTURE
     1 RXT         1 TEMP              0 ****  ****    0 ROOT
