@<TRIPOS>MOLECULE
RXT
   41    44     1     0     0
SMALL
No Charge or Current Charge


@<TRIPOS>ATOM
      1 CAK         -5.0310    -0.3060     0.5220 c5         1 RXT      -0.076400
      2 CAH         -5.4580    -1.3520     1.5940 c5         1 RXT      -0.078400
      3 CAI         -4.2960    -2.3950     1.6270 c5         1 RXT      -0.078400
      4 CAL         -3.3380    -1.9460     0.4920 c5         1 RXT      -0.076400
      5 CAU         -3.4800    -0.4010     0.5510 c5         1 RXT      -0.087700
      6 CAV         -2.7410     0.3630    -0.5900 c3         1 RXT       0.105300
      7 CAJ         -2.9610     1.9010    -0.5330 c3         1 RXT      -0.030300
      8 CAB         -2.3870     2.6190    -1.6780 c1         1 RXT       0.291900
      9 NAA         -1.9520     3.2110    -2.5810 n1         1 RXT      -0.437000
     10 NAW         -1.2990     0.0240    -0.6550 na         1 RXT       0.126800
     11 CAG         -0.3620     0.2070     0.3590 cc         1 RXT      -0.106000
     12 NAO         -0.7710    -0.5490    -1.7940 nc         1 RXT      -0.525800
     13 CAF          0.5000    -0.7080    -1.4800 cd         1 RXT       0.276900
     14 CAQ          0.8140    -0.2320    -0.1890 cd         1 RXT      -0.286500
     15 CAR          2.1070    -0.3240     0.5040 ca         1 RXT       0.282500
     16 NAM          2.0710    -0.4500     1.8510 nb         1 RXT      -0.235000
     17 CAE          3.2550    -0.6140     2.4860 ca         1 RXT       0.143900
     18 NAP          4.4800    -0.6810     1.9130 nb         1 RXT      -0.200000
     19 CAT          4.5090    -0.5680     0.5720 ca         1 RXT       0.125500
     20 CAS          3.3540    -0.3950    -0.1540 ca         1 RXT      -0.186800
     21 CAD          3.7190    -0.2700    -1.5380 cc         1 RXT      -0.208200
     22 CAC          5.0970    -0.3930    -1.6030 cd         1 RXT      -0.164100
     23 NAN          5.5940    -0.5870    -0.2910 na         1 RXT      -0.322400
     24 H1          -5.4330    -0.5640    -0.4660 hc         1 RXT       0.049950
     25 H2          -5.4020     0.6950     0.7690 hc         1 RXT       0.049950
     26 H3          -5.5830    -0.8820     2.5760 hc         1 RXT       0.045450
     27 H4          -6.4190    -1.8140     1.3400 hc         1 RXT       0.045450
     28 H5          -3.7870    -2.3740     2.5980 hc         1 RXT       0.045450
     29 H6          -4.6530    -3.4200     1.4780 hc         1 RXT       0.045450
     30 H7          -2.3100    -2.2850     0.6680 hc         1 RXT       0.049950
     31 H8          -3.6490    -2.3480    -0.4810 hc         1 RXT       0.049950
     32 H9          -3.0880    -0.0150     1.5010 hc         1 RXT       0.058700
     33 H10         -3.1850     0.0130    -1.5320 h1         1 RXT       0.097700
     34 H11         -4.0320     2.1260    -0.5080 hc         1 RXT       0.080700
     35 H12         -2.5270     2.3060     0.3890 hc         1 RXT       0.080700
     36 H18         -0.6050     0.6130     1.3340 h4         1 RXT       0.170000
     37 H19          1.1540    -1.1870    -2.1970 h4         1 RXT       0.041100
     38 H20          3.2190    -0.7090     3.5700 h5         1 RXT       0.045100
     39 H21          3.0710    -0.0730    -2.3900 ha         1 RXT       0.209000
     40 H22          5.7530    -0.3450    -2.4710 h4         1 RXT       0.217000
     41 H23          6.5660    -0.7060    -0.0210 hn         1 RXT       0.363000
@<TRIPOS>BOND
     1     1     2 1   
     2     1     5 1   
     3     1    24 1   
     4     1    25 1   
     5     2     3 1   
     6     2    26 1   
     7     2    27 1   
     8     3     4 1   
     9     3    28 1   
    10     3    29 1   
    11     4     5 1   
    12     4    30 1   
    13     4    31 1   
    14     5     6 1   
    15     5    32 1   
    16     6     7 1   
    17     6    10 1   
    18     6    33 1   
    19     7     8 1   
    20     7    34 1   
    21     7    35 1   
    22     8     9 3   
    23    10    11 1   
    24    10    12 1   
    25    11    14 2   
    26    11    36 1   
    27    12    13 2   
    28    13    14 1   
    29    13    37 1   
    30    14    15 1   
    31    15    16 ar  
    32    15    20 ar  
    33    16    17 ar  
    34    17    18 ar  
    35    17    38 1   
    36    18    19 ar  
    37    19    20 ar  
    38    19    23 1   
    39    20    21 1   
    40    21    22 2   
    41    21    39 1   
    42    22    23 1   
    43    22    40 1   
    44    23    41 1   
@<TRIPOS>SUBSTRUCTURE
     1 RXT         1 TEMP              0 ****  ****    0 ROOT
