@<TRIPOS>MOLECULE
RXU
   58    62     1     0     0
SMALL
No Charge or Current Charge


@<TRIPOS>ATOM
      1 N1         -21.5670     6.3830    31.3830 n3         1 RXU      -0.745600
      2 N3         -16.4360     3.7400    27.2780 nb         1 RXU      -0.655000
      3 C4         -22.4740     4.1370    32.0480 ca         1 RXU      -0.061300
      4 C5         -22.8780     3.2670    33.0800 ca         1 RXU      -0.100000
      5 C6         -22.8730     1.8790    32.8800 ca         1 RXU      -0.092000
      6 C7         -22.4430     1.3570    31.6540 ca         1 RXU       0.125000
      7 C8         -22.0420     2.2170    30.6200 ca         1 RXU      -0.093000
      8 C10        -21.6280     4.5930    29.6640 c5         1 RXU      -0.083700
      9 C13        -20.1230     4.4720    29.3800 c          1 RXU       0.574000
     10 C15        -17.7220     3.7230    27.6890 ca         1 RXU       0.345900
     11 C17        -16.8900     5.8450    26.1690 ca         1 RXU      -0.121300
     12 C20        -18.5850     8.0770    25.3100 c6         1 RXU      -0.073400
     13 C21        -19.1900     6.9860    26.2250 c6         1 RXU      -0.040100
     14 C22        -18.2520     5.8060    26.5600 ca         1 RXU      -0.026300
     15 O1         -19.2090     4.2520    30.1660 o          1 RXU      -0.531000
     16 N2         -19.9790     4.6600    27.9910 n          1 RXU      -0.250400
     17 C14        -18.6950     4.6830    27.3150 ca         1 RXU      -0.102000
     18 C19        -17.1020     8.3280    25.6260 c6         1 RXU      -0.073400
     19 C18        -16.3000     7.0320    25.4020 c6         1 RXU      -0.027100
     20 C16        -16.0400     4.7830    26.5250 ca         1 RXU       0.337900
     21 C12        -21.2720     4.8240    27.2860 c5         1 RXU       0.106000
     22 C11        -22.2600     4.1670    28.2920 c5         1 RXU      -0.089400
     23 C9         -22.0850     3.6240    30.7830 ca         1 RXU      -0.038300
     24 Cl         -22.3920    -0.3840    31.4130 cl         1 RXU      -0.208000
     25 C3         -22.4360     5.6440    32.3290 c6         1 RXU       0.225100
     26 C23        -21.9700     6.0730    29.9950 c6         1 RXU       0.184800
     27 C2         -21.4770     7.8530    31.6700 c3         1 RXU       0.090800
     28 C1         -20.3740     8.6310    30.8980 c          1 RXU       0.582100
     29 O          -20.4690     9.8110    30.5820 o          1 RXU      -0.631100
     30 N          -19.2740     7.8680    30.5720 ns         1 RXU      -0.493900
     31 C          -18.1240     8.3300    29.7940 c3         1 RXU       0.092300
     32 H2         -23.1860     3.6680    34.0430 ha         1 RXU       0.119000
     33 H3         -23.1800     1.2090    33.6790 ha         1 RXU       0.133000
     34 H4         -21.6820     1.7710    29.6990 ha         1 RXU       0.129000
     35 H6         -19.1580     9.0090    25.4100 hc         1 RXU       0.047200
     36 H7         -18.6810     7.7680    24.2590 hc         1 RXU       0.047200
     37 H8         -19.5300     7.4470    27.1620 hc         1 RXU       0.057700
     38 H9         -20.0850     6.6120    25.7140 hc         1 RXU       0.057700
     39 H10        -16.9900     8.6650    26.6660 hc         1 RXU       0.048200
     40 H11        -16.7070     9.1300    24.9870 hc         1 RXU       0.048200
     41 H12        -15.2560     7.1970    25.7020 hc         1 RXU       0.051700
     42 H13        -16.2780     6.7930    24.3290 hc         1 RXU       0.051700
     43 H14        -14.9920     4.7870    26.2270 h4         1 RXU       0.020100
     44 H15        -21.5210     5.8830    27.1470 h1         1 RXU       0.052700
     45 H16        -21.2790     4.3260    26.3080 h1         1 RXU       0.052700
     46 H17        -23.2900     4.5190    28.1610 hc         1 RXU       0.065700
     47 H18        -22.2740     3.0870    28.1230 hc         1 RXU       0.065700
     48 H19        -22.0810     5.7980    33.3590 h1         1 RXU       0.048200
     49 H20        -23.4650     6.0310    32.2850 h1         1 RXU       0.048200
     50 H21        -21.4610     6.7370    29.2810 h1         1 RXU       0.044700
     51 H22        -23.0500     6.2440    29.8690 h1         1 RXU       0.044700
     52 H23        -21.2550     8.0030    32.7350 h1         1 RXU       0.064200
     53 H24        -22.4360     8.3440    31.4630 h1         1 RXU       0.064200
     54 H25        -19.3250     6.8960    30.8640 hn         1 RXU       0.359500
     55 H26        -17.5370     7.4650    29.4600 h1         1 RXU       0.041033
     56 H27        -18.4690     8.8900    28.9150 h1         1 RXU       0.041033
     57 H28        -17.4950     8.9790    30.4170 h1         1 RXU       0.041033
     58 H5         -17.9950     2.8800    28.3230 h4         1 RXU       0.028100
@<TRIPOS>BOND
     1     1    25 1   
     2     1    26 1   
     3     1    27 1   
     4     2    10 ar  
     5     2    20 ar  
     6     3     4 ar  
     7     3    23 ar  
     8     3    25 1   
     9     4     5 ar  
    10     4    32 1   
    11     5     6 ar  
    12     5    33 1   
    13     6     7 ar  
    14     6    24 1   
    15     7    23 ar  
    16     7    34 1   
    17     8     9 1   
    18     8    22 1   
    19     8    23 1   
    20     8    26 1   
    21     9    15 2   
    22     9    16 1   
    23    10    17 ar  
    24    10    58 1   
    25    11    14 ar  
    26    11    19 1   
    27    11    20 ar  
    28    12    13 1   
    29    12    18 1   
    30    12    35 1   
    31    12    36 1   
    32    13    14 1   
    33    13    37 1   
    34    13    38 1   
    35    14    17 ar  
    36    16    17 1   
    37    16    21 1   
    38    18    19 1   
    39    18    39 1   
    40    18    40 1   
    41    19    41 1   
    42    19    42 1   
    43    20    43 1   
    44    21    22 1   
    45    21    44 1   
    46    21    45 1   
    47    22    46 1   
    48    22    47 1   
    49    25    48 1   
    50    25    49 1   
    51    26    50 1   
    52    26    51 1   
    53    27    28 1   
    54    27    52 1   
    55    27    53 1   
    56    28    29 2   
    57    28    30 1   
    58    30    31 1   
    59    30    54 1   
    60    31    55 1   
    61    31    56 1   
    62    31    57 1   
@<TRIPOS>SUBSTRUCTURE
     1 RXU         1 TEMP              0 ****  ****    0 ROOT
