@<TRIPOS>MOLECULE
RXU
   58    62     1     0     0
SMALL
abcg2


@<TRIPOS>ATOM
      1 N1         -21.7150     6.5280    30.9530 n3         1 RXU      -0.745600
      2 N3         -16.7690     3.4550    26.3980 nb         1 RXU      -0.655000
      3 C4         -22.3420     4.3870    31.9300 ca         1 RXU      -0.061300
      4 C5         -22.6000     3.6230    33.0690 ca         1 RXU      -0.100000
      5 C6         -22.4410     2.2470    33.0700 ca         1 RXU      -0.092000
      6 C7         -22.0030     1.6350    31.9020 ca         1 RXU       0.125000
      7 C8         -21.7500     2.3670    30.7570 ca         1 RXU      -0.093000
      8 C10        -21.6570     4.5420    29.4900 c5         1 RXU      -0.083700
      9 C13        -20.1530     4.5590    29.1590 c          1 RXU       0.574000
     10 C15        -17.9670     3.4150    26.9840 ca         1 RXU       0.345900
     11 C17        -17.0610     5.8340    26.0920 ca         1 RXU      -0.121300
     12 C20        -18.6380     8.2490    26.1530 c6         1 RXU      -0.073400
     13 C21        -19.1470     7.0280    26.9190 c6         1 RXU      -0.040100
     14 C22        -18.3160     5.7890    26.7080 ca         1 RXU      -0.026300
     15 O1         -19.2370     4.7410    29.9540 o          1 RXU      -0.531000
     16 N2         -20.0090     4.4040    27.8230 n          1 RXU      -0.250400
     17 C14        -18.7560     4.5410    27.1620 ca         1 RXU      -0.102000
     18 C19        -17.1170     8.3520    26.2240 c6         1 RXU      -0.073400
     19 C18        -16.4810     7.1270    25.5720 c6         1 RXU      -0.027100
     20 C16        -16.3420     4.6450    25.9730 ca         1 RXU       0.337900
     21 C12        -21.2670     4.2220    27.0960 c5         1 RXU       0.106000
     22 C11        -22.2810     3.9430    28.2110 c5         1 RXU      -0.089400
     23 C9         -21.9360     3.7520    30.7540 ca         1 RXU      -0.038300
     24 CL         -21.7600    -0.1020    31.8810 cl         1 RXU      -0.208000
     25 C3         -22.4930     5.8850    31.9980 c6         1 RXU       0.225100
     26 C23        -22.0980     6.0130    29.6530 c6         1 RXU       0.184800
     27 C2         -21.6930     7.9760    31.0300 c3         1 RXU       0.090800
     28 C1         -20.3540     8.5980    30.6430 c          1 RXU       0.582100
     29 O          -20.2610     9.8180    30.4700 o          1 RXU      -0.631100
     30 N          -19.3250     7.7500    30.5520 ns         1 RXU      -0.493900
     31 C          -17.9730     8.1750    30.2470 c3         1 RXU       0.092300
     32 H2         -22.9180     4.1200    33.9780 ha         1 RXU       0.119000
     33 H3         -22.6370     1.6630    33.9590 ha         1 RXU       0.133000
     34 H4         -21.4040     1.8570    29.8690 ha         1 RXU       0.129000
     35 H6         -19.1090     9.1470    26.5570 hc         1 RXU       0.047200
     36 H7         -18.9400     8.1750    25.1030 hc         1 RXU       0.047200
     37 H8         -19.1610     7.2430    27.9900 hc         1 RXU       0.057700
     38 H9         -20.1850     6.8240    26.6510 hc         1 RXU       0.057700
     39 H10        -16.8020     8.4180    27.2700 hc         1 RXU       0.048200
     40 H11        -16.7700     9.2590    25.7250 hc         1 RXU       0.048200
     41 H12        -15.3990     7.1220    25.7190 hc         1 RXU       0.051700
     42 H13        -16.6430     7.1740    24.4890 hc         1 RXU       0.051700
     43 H14        -15.3610     4.6660    25.5080 h4         1 RXU       0.020100
     44 H15        -21.5090     5.1220    26.5270 h1         1 RXU       0.052700
     45 H16        -21.1750     3.3900    26.3970 h1         1 RXU       0.052700
     46 H17        -23.2540     4.3830    27.9970 hc         1 RXU       0.065700
     47 H18        -22.4170     2.8700    28.3200 hc         1 RXU       0.065700
     48 H19        -22.1430     6.2380    32.9690 h1         1 RXU       0.048200
     49 H20        -23.5630     6.1490    31.9230 h1         1 RXU       0.048200
     50 H21        -21.6410     6.6200    28.8720 h1         1 RXU       0.044700
     51 H22        -23.1900     6.0660    29.5110 h1         1 RXU       0.044700
     52 H23        -21.8760     8.2820    32.0620 h1         1 RXU       0.064200
     53 H24        -22.4700     8.4530    30.4180 h1         1 RXU       0.064200
     54 H25        -19.5210     6.7660    30.6930 hn         1 RXU       0.359500
     55 H26        -17.4000     7.3070    29.9290 h1         1 RXU       0.041033
     56 H27        -17.9800     8.9110    29.4440 h1         1 RXU       0.041033
     57 H28        -17.4880     8.6210    31.1190 h1         1 RXU       0.041033
     58 H5         -18.3220     2.4530    27.3390 h4         1 RXU       0.028100
@<TRIPOS>BOND
     1     1    25 1   
     2     1    26 1   
     3     1    27 1   
     4     2    10 ar  
     5     2    20 ar  
     6     3     4 ar  
     7     3    23 ar  
     8     3    25 1   
     9     4     5 ar  
    10     4    32 1   
    11     5     6 ar  
    12     5    33 1   
    13     6     7 ar  
    14     6    24 1   
    15     7    23 ar  
    16     7    34 1   
    17     8     9 1   
    18     8    22 1   
    19     8    23 1   
    20     8    26 1   
    21     9    15 2   
    22     9    16 1   
    23    10    17 ar  
    24    10    58 1   
    25    11    14 ar  
    26    11    19 1   
    27    11    20 ar  
    28    12    13 1   
    29    12    18 1   
    30    12    35 1   
    31    12    36 1   
    32    13    14 1   
    33    13    37 1   
    34    13    38 1   
    35    14    17 ar  
    36    16    17 1   
    37    16    21 1   
    38    18    19 1   
    39    18    39 1   
    40    18    40 1   
    41    19    41 1   
    42    19    42 1   
    43    20    43 1   
    44    21    22 1   
    45    21    44 1   
    46    21    45 1   
    47    22    46 1   
    48    22    47 1   
    49    25    48 1   
    50    25    49 1   
    51    26    50 1   
    52    26    51 1   
    53    27    28 1   
    54    27    52 1   
    55    27    53 1   
    56    28    29 2   
    57    28    30 1   
    58    30    31 1   
    59    30    54 1   
    60    31    55 1   
    61    31    56 1   
    62    31    57 1   
@<TRIPOS>SUBSTRUCTURE
     1 RXU         1 TEMP              0 ****  ****    0 ROOT
