@<TRIPOS>MOLECULE
RXV
   60    64     1     0     0
SMALL
No Charge or Current Charge


@<TRIPOS>ATOM
      1 N11         -4.5140    -4.5480     1.0650 n1         1 RXV      -0.446000
      2 C10         -5.0370    -3.5330     0.8250 cg         1 RXV       0.325000
      3 C9          -5.6920    -2.2910     0.5280 ca         1 RXV      -0.072000
      4 C12         -5.0190    -1.0420     0.5110 ca         1 RXV       0.013700
      5 C32         -5.7840     0.1090     0.1650 ca         1 RXV      -0.045000
      6 C33         -5.2050     1.4010     0.0860 ca         1 RXV      -0.147000
      7 C3          -5.9740     2.5240    -0.2530 ca         1 RXV       0.146100
      8 O2          -5.3380     3.7470    -0.3090 os         1 RXV      -0.342100
      9 C1          -6.0340     4.9600    -0.6480 c3         1 RXV       0.148900
     10 C4          -7.3470     2.3700    -0.5230 ca         1 RXV      -0.167000
     11 C5          -7.9300     1.0940    -0.4540 ca         1 RXV      -0.047000
     12 C6          -7.1720    -0.0430    -0.1180 ca         1 RXV       0.244000
     13 N7          -7.7890    -1.2440    -0.0780 nb         1 RXV      -0.649000
     14 C8          -7.0600    -2.3360     0.2340 ca         1 RXV       0.372900
     15 C13         -3.5170    -0.9460     0.8380 c3         1 RXV      -0.049100
     16 C14         -2.6500    -0.9230    -0.4420 c3         1 RXV       0.174800
     17 N15         -1.1840    -0.9690    -0.2070 n3         1 RXV      -0.726600
     18 C16         -0.4360    -1.2140    -1.4710 c6         1 RXV       0.172300
     19 C17          1.0770    -1.3950    -1.2130 c6         1 RXV      -0.092900
     20 C18          1.6600    -0.1640    -0.4880 c6         1 RXV       0.179500
     21 C19          0.8560     0.0970     0.8080 c6         1 RXV      -0.092900
     22 C20         -0.6540     0.2320     0.5040 c6         1 RXV       0.172300
     23 N21          3.1010    -0.3680    -0.2190 n7         1 RXV      -0.878400
     24 C22          3.9010     0.8060     0.2330 c3         1 RXV       0.115500
     25 C23          5.3930     0.4860     0.4240 ca         1 RXV       0.327300
     26 C24          6.3110     0.6960    -0.6310 ca         1 RXV      -0.084000
     27 C25          7.6590     0.3820    -0.4070 ca         1 RXV      -0.135000
     28 S26          8.9860     0.5920    -1.5360 ss         1 RXV      -0.176000
     29 C27         10.0040    -0.4210    -0.3360 c5         1 RXV       0.290600
     30 O28          9.3960    -0.3730     0.9970 os         1 RXV      -0.306100
     31 C29          8.0530    -0.1170     0.8230 ca         1 RXV       0.045100
     32 C30          7.0850    -0.2900     1.8360 ca         1 RXV       0.339900
     33 N31          5.7690    -0.0000     1.6430 nb         1 RXV      -0.657000
     34 H8          -7.6020    -3.2820     0.2430 h4         1 RXV       0.032100
     35 H131        -3.3210    -0.0610     1.4500 hc         1 RXV       0.068700
     36 H132        -3.1840    -1.7810     1.4640 hc         1 RXV       0.068700
     37 H33         -4.1500     1.5650     0.2780 ha         1 RXV       0.133000
     38 H4          -7.9720     3.2170    -0.7880 ha         1 RXV       0.123000
     39 H11C        -6.4690     4.8930    -1.6530 h1         1 RXV       0.044033
     40 H12C        -6.8380     5.1640     0.0720 h1         1 RXV       0.044033
     41 H13C        -5.3420     5.8120    -0.6330 h1         1 RXV       0.044033
     42 H5          -8.9900     0.9810    -0.6680 ha         1 RXV       0.135000
     43 H141        -2.9420    -1.7950    -1.0440 h1         1 RXV       0.038700
     44 H142        -2.9070    -0.0330    -1.0320 h1         1 RXV       0.038700
     45 H161        -0.8150    -2.1190    -1.9680 h1         1 RXV       0.032700
     46 H162        -0.5840    -0.3760    -2.1690 h1         1 RXV       0.032700
     47 H201        -0.8190     1.1350    -0.1020 h1         1 RXV       0.032700
     48 H202        -1.1740     0.3840     1.4600 h1         1 RXV       0.032700
     49 H171         1.2380    -2.3010    -0.6140 hc         1 RXV       0.052450
     50 H172         1.5950    -1.5500    -2.1690 hc         1 RXV       0.052450
     51 H18          1.5450     0.7070    -1.1540 h1         1 RXV       0.055700
     52 H191         1.0120    -0.7230     1.5220 hc         1 RXV       0.052450
     53 H192         1.2040     1.0150     1.2980 hc         1 RXV       0.052450
     54 H21          3.2030    -1.1150     0.4790 hn         1 RXV       0.417000
     55 H221         3.8150     1.6240    -0.4960 h1         1 RXV       0.052200
     56 H222         3.5130     1.1920     1.1850 h1         1 RXV       0.052200
     57 H24          5.9750     1.0900    -1.5860 ha         1 RXV       0.155000
     58 H271         9.9940    -1.4580    -0.6910 h2         1 RXV       0.082200
     59 H272        11.0320    -0.0410    -0.3020 h2         1 RXV       0.082200
     60 H30          7.3660    -0.6690     2.8180 h4         1 RXV       0.037100
@<TRIPOS>BOND
     1     1     2 3   
     2     2     3 1   
     3     3     4 ar  
     4     3    14 ar  
     5     4     5 ar  
     6     4    15 1   
     7     5     6 ar  
     8     5    12 ar  
     9     6     7 ar  
    10     6    37 1   
    11     7     8 1   
    12     7    10 ar  
    13     8     9 1   
    14     9    39 1   
    15     9    40 1   
    16     9    41 1   
    17    10    11 ar  
    18    10    38 1   
    19    11    12 ar  
    20    11    42 1   
    21    12    13 ar  
    22    13    14 ar  
    23    14    34 1   
    24    15    16 1   
    25    15    35 1   
    26    15    36 1   
    27    16    17 1   
    28    16    43 1   
    29    16    44 1   
    30    17    18 1   
    31    17    22 1   
    32    18    19 1   
    33    18    45 1   
    34    18    46 1   
    35    19    20 1   
    36    19    49 1   
    37    19    50 1   
    38    20    21 1   
    39    20    23 1   
    40    20    51 1   
    41    21    22 1   
    42    21    52 1   
    43    21    53 1   
    44    22    47 1   
    45    22    48 1   
    46    23    24 1   
    47    23    54 1   
    48    24    25 1   
    49    24    55 1   
    50    24    56 1   
    51    25    26 ar  
    52    25    33 ar  
    53    26    27 ar  
    54    26    57 1   
    55    27    28 1   
    56    27    31 ar  
    57    28    29 1   
    58    29    30 1   
    59    29    58 1   
    60    29    59 1   
    61    30    31 1   
    62    31    32 ar  
    63    32    33 ar  
    64    32    60 1   
@<TRIPOS>SUBSTRUCTURE
     1 RXV         1 TEMP              0 ****  ****    0 ROOT
