@<TRIPOS>MOLECULE
RXV
   60    64     1     0     0
SMALL
abcg2


@<TRIPOS>ATOM
      1 N11         -4.5480    -4.6520     0.2630 n1         1 RXV      -0.446000
      2 C10         -5.0220    -3.6040     0.1790 cg         1 RXV       0.325000
      3 C9          -5.6300    -2.3210     0.0590 ca         1 RXV      -0.072000
      4 C12         -4.9080    -1.1670     0.2770 ca         1 RXV       0.013700
      5 C32         -5.6040     0.0630     0.1120 ca         1 RXV      -0.045000
      6 C33         -4.9870     1.3150     0.2900 ca         1 RXV      -0.147000
      7 C3          -5.6950     2.4830     0.1140 ca         1 RXV       0.146100
      8 O2          -5.0260     3.6300     0.3030 os         1 RXV      -0.342100
      9 C1          -5.7000     4.8630     0.1230 c3         1 RXV       0.148900
     10 C4          -7.0600     2.4290    -0.2490 ca         1 RXV      -0.167000
     11 C5          -7.6770     1.2200    -0.4230 ca         1 RXV      -0.047000
     12 C6          -6.9760     0.0110    -0.2520 ca         1 RXV       0.244000
     13 N7          -7.6470    -1.1500    -0.4480 nb         1 RXV      -0.649000
     14 C8          -7.0020    -2.2650    -0.3000 ca         1 RXV       0.372900
     15 C13         -3.4530    -1.2020     0.6210 c3         1 RXV      -0.049100
     16 C14         -2.5850    -0.9940    -0.6290 c3         1 RXV       0.174800
     17 N15         -1.1760    -0.9710    -0.3000 n3         1 RXV      -0.726600
     18 C16         -0.3460    -1.3810    -1.4200 c6         1 RXV       0.172300
     19 C17          1.1120    -1.4960    -1.0060 c6         1 RXV      -0.092900
     20 C18          1.6310    -0.1800    -0.4400 c6         1 RXV       0.179500
     21 C19          0.6960     0.2810     0.6790 c6         1 RXV      -0.092900
     22 C20         -0.7510     0.3200     0.2100 c6         1 RXV       0.172300
     23 N21          3.0240    -0.3270    -0.0600 n7         1 RXV      -0.878400
     24 C22          3.6930     0.8960     0.3240 c3         1 RXV       0.115500
     25 C23          5.1910     0.7220     0.3830 ca         1 RXV       0.327300
     26 C24          5.8360    -0.2130    -0.4310 ca         1 RXV      -0.084000
     27 C25          7.2090    -0.2920    -0.3440 ca         1 RXV      -0.135000
     28 S26          8.3320    -1.2930    -1.2360 ss         1 RXV      -0.176000
     29 C27          9.6390    -0.7890    -0.0430 c5         1 RXV       0.290600
     30 O28          9.2380     0.4450     0.5150 os         1 RXV      -0.306100
     31 C29          7.8910     0.5540     0.5240 ca         1 RXV       0.045100
     32 C30          7.1760     1.4460     1.2930 ca         1 RXV       0.339900
     33 N31          5.8480     1.5170     1.2170 nb         1 RXV      -0.657000
     34 H8          -7.5470    -3.1890    -0.4610 h4         1 RXV       0.032100
     35 H131        -3.2370    -0.4450     1.3750 hc         1 RXV       0.068700
     36 H132        -3.1870    -2.1610     1.0670 hc         1 RXV       0.068700
     37 H33         -3.9430     1.3820     0.5660 ha         1 RXV       0.133000
     38 H4          -7.6330     3.3340    -0.3940 ha         1 RXV       0.123000
     39 H11C        -6.0700     4.9810    -0.8980 h1         1 RXV       0.044033
     40 H12C        -6.5320     4.9790     0.8210 h1         1 RXV       0.044033
     41 H13C        -4.9680     5.6410     0.3220 h1         1 RXV       0.044033
     42 H5          -8.7220     1.1760    -0.6990 ha         1 RXV       0.135000
     43 H141        -2.7680    -1.8270    -1.3120 h1         1 RXV       0.038700
     44 H142        -2.9030    -0.0830    -1.1620 h1         1 RXV       0.038700
     45 H161        -0.7010    -2.3480    -1.7830 h1         1 RXV       0.032700
     46 H162        -0.4250    -0.6740    -2.2650 h1         1 RXV       0.032700
     47 H201        -0.8710     1.1070    -0.5570 h1         1 RXV       0.032700
     48 H202        -1.3890     0.6100     1.0490 h1         1 RXV       0.032700
     49 H171         1.2120    -2.2830    -0.2500 hc         1 RXV       0.052450
     50 H172         1.7140    -1.7950    -1.8680 hc         1 RXV       0.052450
     51 H18          1.5950     0.5680    -1.2430 h1         1 RXV       0.055700
     52 H191         0.7790    -0.4120     1.5240 hc         1 RXV       0.052450
     53 H192         0.9780     1.2720     1.0430 hc         1 RXV       0.052450
     54 H21          3.1010    -1.0040     0.6910 hn         1 RXV       0.417000
     55 H221         3.4680     1.6540    -0.4350 h1         1 RXV       0.052200
     56 H222         3.3660     1.3210     1.2820 h1         1 RXV       0.052200
     57 H24          5.2630    -0.8490    -1.0920 ha         1 RXV       0.155000
     58 H271         9.7270    -1.5510     0.7350 h2         1 RXV       0.082200
     59 H272        10.5880    -0.6640    -0.5570 h2         1 RXV       0.082200
     60 H30          7.6780     2.1150     1.9840 h4         1 RXV       0.037100
@<TRIPOS>BOND
     1     1     2 3   
     2     2     3 1   
     3     3     4 ar  
     4     3    14 ar  
     5     4     5 ar  
     6     4    15 1   
     7     5     6 ar  
     8     5    12 ar  
     9     6     7 ar  
    10     6    37 1   
    11     7     8 1   
    12     7    10 ar  
    13     8     9 1   
    14     9    39 1   
    15     9    40 1   
    16     9    41 1   
    17    10    11 ar  
    18    10    38 1   
    19    11    12 ar  
    20    11    42 1   
    21    12    13 ar  
    22    13    14 ar  
    23    14    34 1   
    24    15    16 1   
    25    15    35 1   
    26    15    36 1   
    27    16    17 1   
    28    16    43 1   
    29    16    44 1   
    30    17    18 1   
    31    17    22 1   
    32    18    19 1   
    33    18    45 1   
    34    18    46 1   
    35    19    20 1   
    36    19    49 1   
    37    19    50 1   
    38    20    21 1   
    39    20    23 1   
    40    20    51 1   
    41    21    22 1   
    42    21    52 1   
    43    21    53 1   
    44    22    47 1   
    45    22    48 1   
    46    23    24 1   
    47    23    54 1   
    48    24    25 1   
    49    24    55 1   
    50    24    56 1   
    51    25    26 ar  
    52    25    33 ar  
    53    26    27 ar  
    54    26    57 1   
    55    27    28 1   
    56    27    31 ar  
    57    28    29 1   
    58    29    30 1   
    59    29    58 1   
    60    29    59 1   
    61    30    31 1   
    62    31    32 ar  
    63    32    33 ar  
    64    32    60 1   
@<TRIPOS>SUBSTRUCTURE
     1 RXV         1 TEMP              0 ****  ****    0 ROOT
