@<TRIPOS>MOLECULE
RXX
   36    39     1     0     0
SMALL
No Charge or Current Charge


@<TRIPOS>ATOM
      1 C18        -45.8130   -30.7760     5.0040 ca         1 RXX       0.412900
      2 C15        -47.1420   -28.9880     5.4260 ca         1 RXX       0.476900
      3 C14        -46.7520   -28.4340     4.1910 ca         1 RXX      -0.141600
      4 C12        -46.4550   -27.2290     2.4250 cc         1 RXX       0.393700
      5 C02        -44.3110   -34.9070    -2.4950 cc         1 RXX       0.160300
      6 C03        -43.0560   -34.5500    -2.0770 cd         1 RXX      -0.192000
      7 C04        -43.1820   -33.3430    -1.3560 cd         1 RXX      -0.102000
      8 C05        -44.5140   -33.0240    -1.3700 cc         1 RXX       0.068000
      9 C07        -45.1200   -31.8700    -0.7570 cc         1 RXX       0.417400
     10 C09        -45.3370   -29.9650     0.3830 cd         1 RXX       0.260300
     11 C21        -45.8650   -29.1480     3.4240 ca         1 RXX       0.181500
     12 C22        -46.6520   -30.1720     0.0400 cc         1 RXX      -0.264000
     13 N08        -44.4590   -30.9350    -0.0790 nd         1 RXX      -0.610000
     14 N11        -45.6780   -28.3830     2.3100 na         1 RXX      -0.294300
     15 N13        -47.1380   -27.2280     3.5870 nd         1 RXX      -0.544100
     16 N16        -48.0150   -28.3680     6.2600 nv         1 RXX      -1.069900
     17 N17        -46.6730   -30.1730     5.8410 nb         1 RXX      -0.350000
     18 N19        -45.3340   -31.9690     5.4200 nv         1 RXX      -1.045900
     19 N20        -45.3710   -30.3390     3.8110 nb         1 RXX      -0.274000
     20 O06        -45.2300   -33.9750    -2.0680 os         1 RXX      -0.261000
     21 S23        -46.8470   -31.6320    -0.8840 ss         1 RXX       0.006600
     22 H121       -46.4830   -26.4630     1.6590 h5         1 RXX       0.062800
     23 H101       -43.8250   -29.0580     1.5890 h1         1 RXX       0.078700
     24 H102       -44.6780   -27.9460     0.5110 h1         1 RXX       0.078700
     25 H012       -45.2760   -35.7550    -4.2160 hc         1 RXX       0.057700
     26 H011       -43.9460   -36.7350    -3.5670 hc         1 RXX       0.057700
     27 H013       -45.5030   -36.6790    -2.7170 hc         1 RXX       0.057700
     28 H031       -42.1400   -35.0980    -2.2690 ha         1 RXX       0.144000
     29 H041       -42.3870   -32.7760    -0.8810 ha         1 RXX       0.161000
     30 H221       -47.5150   -29.5650     0.2770 h4         1 RXX       0.160000
     31 H161       -48.4800   -28.9360     6.9620 hn         1 RXX       0.503500
     32 H162       -48.5490   -27.5950     5.8710 hn         1 RXX       0.503500
     33 H192       -44.5250   -32.3570     4.9420 hn         1 RXX       0.482500
     34 H191       -45.4620   -32.2300     6.3940 hn         1 RXX       0.482500
     35 C10        -44.8130   -28.7980     1.1880 c3         1 RXX       0.067300
     36 C01        -44.7850   -36.0840    -3.2930 c3         1 RXX      -0.125400
@<TRIPOS>BOND
     1     1    17 ar  
     2     1    18 1   
     3     1    19 ar  
     4     2     3 ar  
     5     2    16 1   
     6     2    17 ar  
     7     3    11 ar  
     8     3    15 1   
     9     4    14 1   
    10     4    15 2   
    11     4    22 1   
    12     5     6 2   
    13     5    20 1   
    14     5    36 1   
    15     6     7 1   
    16     6    28 1   
    17     7     8 2   
    18     7    29 1   
    19     8     9 1   
    20     8    20 1   
    21     9    13 2   
    22     9    21 1   
    23    10    12 2   
    24    10    13 1   
    25    10    35 1   
    26    11    14 1   
    27    11    19 ar  
    28    12    21 1   
    29    12    30 1   
    30    14    35 1   
    31    16    31 1   
    32    16    32 1   
    33    18    33 1   
    34    18    34 1   
    35    23    35 1   
    36    24    35 1   
    37    25    36 1   
    38    26    36 1   
    39    27    36 1   
@<TRIPOS>SUBSTRUCTURE
     1 RXX         1 TEMP              0 ****  ****    0 ROOT
