@<TRIPOS>MOLECULE
RXX
   36    39     1     0     0
SMALL
abcg2


@<TRIPOS>ATOM
      1 C18        -44.8430   -30.4860     4.9520 ca         1 RXX       0.412900
      2 C15        -47.0920   -29.9570     5.1510 ca         1 RXX       0.476900
      3 C14        -46.9960   -29.2840     3.9170 ca         1 RXX      -0.141600
      4 C12        -47.2210   -28.1870     2.1030 cc         1 RXX       0.393700
      5 C02        -44.8250   -34.7540    -1.9750 cc         1 RXX       0.160300
      6 C03        -44.4910   -35.0020    -0.6760 cd         1 RXX      -0.192000
      7 C04        -44.4870   -33.7480     0.0020 cd         1 RXX      -0.102000
      8 C05        -44.8190   -32.8060    -0.9290 cc         1 RXX       0.068000
      9 C07        -44.9770   -31.3810    -0.8670 cc         1 RXX       0.417400
     10 C09        -45.0220   -29.3340    -0.0180 cd         1 RXX       0.260300
     11 C21        -45.7420   -29.2910     3.3090 ca         1 RXX       0.181500
     12 C22        -45.3550   -29.0170    -1.3010 cc         1 RXX      -0.264000
     13 N08        -44.8100   -30.6680     0.2180 nd         1 RXX      -0.610000
     14 N11        -45.8990   -28.5770     2.1460 na         1 RXX      -0.294300
     15 N13        -47.9090   -28.5830     3.1440 nd         1 RXX      -0.544100
     16 N16        -48.2360   -30.0060     5.8580 nv         1 RXX      -1.069900
     17 N17        -46.0000   -30.5550     5.6440 nb         1 RXX      -0.350000
     18 N19        -43.7820   -31.1590     5.4940 nv         1 RXX      -1.045900
     19 N20        -44.6340   -29.8690     3.7800 nb         1 RXX      -0.274000
     20 O06        -45.0290   -33.4130    -2.1400 os         1 RXX      -0.261000
     21 S23        -45.4080   -30.4360    -2.2730 ss         1 RXX       0.006600
     22 H121       -47.6030   -27.6090     1.2750 h5         1 RXX       0.062800
     23 H101       -43.9190   -28.4500     1.5870 h1         1 RXX       0.078700
     24 H102       -44.9990   -27.3380     0.7390 h1         1 RXX       0.078700
     25 H012       -44.3140   -35.3110    -3.9680 hc         1 RXX       0.057700
     26 H011       -44.7930   -36.6480    -2.9080 hc         1 RXX       0.057700
     27 H013       -46.0160   -35.5430    -3.5590 hc         1 RXX       0.057700
     28 H031       -44.2730   -35.9700    -0.2560 ha         1 RXX       0.144000
     29 H041       -44.2670   -33.5610     1.0390 ha         1 RXX       0.161000
     30 H221       -45.5720   -28.0450    -1.7150 h4         1 RXX       0.160000
     31 H161       -48.2850   -30.5790     6.6840 hn         1 RXX       0.503500
     32 H162       -49.0910   -29.6540     5.4630 hn         1 RXX       0.503500
     33 H192       -42.8680   -30.9140     5.1480 hn         1 RXX       0.482500
     34 H191       -43.8410   -31.3820     6.4740 hn         1 RXX       0.482500
     35 C10        -44.8950   -28.3550     1.1110 c3         1 RXX       0.067300
     36 C01        -44.9970   -35.6110    -3.1690 c3         1 RXX      -0.125400
@<TRIPOS>BOND
     1     1    17 ar  
     2     1    18 1   
     3     1    19 ar  
     4     2     3 ar  
     5     2    16 1   
     6     2    17 ar  
     7     3    11 ar  
     8     3    15 1   
     9     4    14 1   
    10     4    15 2   
    11     4    22 1   
    12     5     6 2   
    13     5    20 1   
    14     5    36 1   
    15     6     7 1   
    16     6    28 1   
    17     7     8 2   
    18     7    29 1   
    19     8     9 1   
    20     8    20 1   
    21     9    13 2   
    22     9    21 1   
    23    10    12 2   
    24    10    13 1   
    25    10    35 1   
    26    11    14 1   
    27    11    19 ar  
    28    12    21 1   
    29    12    30 1   
    30    14    35 1   
    31    16    31 1   
    32    16    32 1   
    33    18    33 1   
    34    18    34 1   
    35    23    35 1   
    36    24    35 1   
    37    25    36 1   
    38    26    36 1   
    39    27    36 1   
@<TRIPOS>SUBSTRUCTURE
     1 RXX         1 TEMP              0 ****  ****    0 ROOT
