@<TRIPOS>MOLECULE
RXY
  122   121     1     0     0
SMALL
No Charge or Current Charge


@<TRIPOS>ATOM
      1 CBE        -26.5060    48.1480    42.8290 c3         1 RXY      -0.094100
      2 CBF        -26.8520    46.6710    42.5580 c3         1 RXY      -0.072400
      3 CBG        -26.0080    46.0040    41.4460 c3         1 RXY      -0.075400
      4 CBH        -26.2290    46.5960    40.0330 c3         1 RXY      -0.076400
      5 CBI        -25.5720    45.7510    38.9160 c3         1 RXY      -0.074400
      6 CBJ        -25.9530    46.1350    37.4620 c3         1 RXY      -0.070400
      7 CBK        -25.4180    47.4940    36.9430 c3         1 RXY      -0.074400
      8 CBL        -26.3270    48.7150    37.2190 c3         1 RXY      -0.044200
      9 CBM        -25.7120    50.0090    36.7130 c2         1 RXY      -0.218200
     10 CBN        -25.7030    51.2010    37.3360 c2         1 RXY      -0.215200
     11 CBO        -26.3420    51.5430    38.6690 c3         1 RXY      -0.043200
     12 CBP        -25.3700    51.3490    39.8500 c3         1 RXY      -0.074400
     13 CBQ        -25.9850    51.7370    41.2130 c3         1 RXY      -0.076400
     14 CBR        -25.0190    51.4950    42.3920 c3         1 RXY      -0.076400
     15 CBS        -25.6450    51.7720    43.7740 c3         1 RXY      -0.076400
     16 CBT        -24.6800    51.4260    44.9260 c3         1 RXY      -0.068400
     17 CBU        -25.2770    51.6550    46.3330 c3         1 RXY      -0.139400
     18 CBV        -24.2350    51.3380    47.4030 c          1 RXY       0.594100
     19 OBY        -24.0390    50.2130    47.8400 o          1 RXY      -0.485000
     20 OBW        -23.4250    52.4240    47.6380 os         1 RXY      -0.460100
     21 CAW        -22.2450    52.3150    48.4770 c3         1 RXY       0.107300
     22 CAX        -22.6460    51.9460    49.9360 c3         1 RXY       0.210600
     23 OAY        -21.5870    52.3300    50.8260 os         1 RXY      -0.575400
     24 PAZ        -21.6540    53.6770    51.7150 p5         1 RXY       1.393800
     25 OBX        -22.9830    53.8500    52.3700 o          1 RXY      -0.804500
     26 OAB        -20.5450    53.6890    52.7140 o          1 RXY      -0.804500
     27 OBA        -21.3810    54.7840    50.5770 os         1 RXY      -0.612400
     28 CBB        -22.4890    55.4670    49.9730 c3         1 RXY       0.233600
     29 CBC        -21.9620    56.2590    48.7420 c3         1 RXY       0.128800
     30 NBD        -23.0170    57.0160    48.0170 n8         1 RXY      -1.001200
     31 CAV        -21.2170    51.3380    47.8230 c3         1 RXY       0.168600
     32 OAU        -19.8930    51.9220    47.8530 os         1 RXY      -0.406100
     33 CAT        -19.5370    53.0230    47.0960 c          1 RXY       0.602100
     34 OAA        -18.4650    53.5780    47.2730 o          1 RXY      -0.435000
     35 CAS        -20.3740    53.3110    45.8270 c3         1 RXY      -0.195400
     36 CAR        -19.9120    52.4340    44.6370 c3         1 RXY      -0.066400
     37 CAQ        -20.7340    52.6840    43.3510 c3         1 RXY      -0.078400
     38 CAP        -20.2730    51.8550    42.1300 c3         1 RXY      -0.074400
     39 CAO        -18.9020    52.2860    41.5480 c3         1 RXY      -0.076400
     40 CAN        -18.5020    51.5420    40.2510 c3         1 RXY      -0.069400
     41 CAM        -18.1220    50.0580    40.4550 c3         1 RXY      -0.048200
     42 CAL        -17.9110    49.3390    39.1340 c2         1 RXY      -0.209200
     43 CAK        -18.6960    48.3840    38.6030 c2         1 RXY      -0.226200
     44 CAJ        -19.9580    47.8010    39.2130 c3         1 RXY      -0.042200
     45 CAI        -21.1750    48.7430    39.0550 c3         1 RXY      -0.071400
     46 CAH        -22.4820    48.2480    39.7220 c3         1 RXY      -0.068400
     47 CAG        -22.7200    48.7120    41.1800 c3         1 RXY      -0.079400
     48 CAF        -21.7710    48.1230    42.2470 c3         1 RXY      -0.074400
     49 CAE        -22.1450    48.5510    43.6790 c3         1 RXY      -0.095100
     50 H1         -27.1400    48.5460    43.6300 hc         1 RXY       0.033367
     51 H2         -25.4620    48.2470    43.1440 hc         1 RXY       0.033367
     52 H3         -26.6650    48.7600    41.9340 hc         1 RXY       0.033367
     53 H4         -27.9150    46.5930    42.3010 hc         1 RXY       0.036200
     54 H5         -26.7140    46.1060    43.4880 hc         1 RXY       0.036200
     55 H6         -26.2620    44.9360    41.4260 hc         1 RXY       0.036200
     56 H7         -24.9440    46.0670    41.7050 hc         1 RXY       0.036200
     57 H9         -25.8140    47.6100    40.0100 hc         1 RXY       0.039200
     58 H8         -27.3060    46.6740    39.8370 hc         1 RXY       0.039200
     59 H10        -25.8600    44.7030    39.0640 hc         1 RXY       0.035700
     60 H11        -24.4820    45.7870    39.0280 hc         1 RXY       0.035700
     61 H13        -27.0430    46.0940    37.3410 hc         1 RXY       0.035700
     62 H12        -25.5510    45.3520    36.8070 hc         1 RXY       0.035700
     63 H15        -24.4170    47.6720    37.3510 hc         1 RXY       0.040200
     64 H14        -25.2900    47.4130    35.8560 hc         1 RXY       0.040200
     65 H17        -27.2900    48.5520    36.7210 hc         1 RXY       0.044700
     66 H16        -26.5450    48.7840    38.2880 hc         1 RXY       0.044700
     67 H18        -25.2230    49.9140    35.7420 ha         1 RXY       0.162000
     68 H19        -25.2100    52.0510    36.8580 ha         1 RXY       0.165000
     69 H21        -26.6900    52.5830    38.6530 hc         1 RXY       0.041700
     70 H20        -27.2350    50.9300    38.8370 hc         1 RXY       0.041700
     71 H23        -25.0580    50.2980    39.8820 hc         1 RXY       0.042200
     72 H22        -24.4660    51.9470    39.6780 hc         1 RXY       0.042200
     73 H25        -26.2750    52.7950    41.1950 hc         1 RXY       0.036200
     74 H24        -26.9020    51.1560    41.3720 hc         1 RXY       0.036200
     75 H26        -24.6840    50.4540    42.3650 hc         1 RXY       0.040200
     76 H27        -24.1260    52.1200    42.2630 hc         1 RXY       0.040200
     77 H28        -25.9330    52.8290    43.8400 hc         1 RXY       0.037200
     78 H29        -26.5620    51.1790    43.8830 hc         1 RXY       0.037200
     79 H31        -24.3770    50.3750    44.8370 hc         1 RXY       0.049200
     80 H30        -23.7690    52.0300    44.8220 hc         1 RXY       0.049200
     81 H32        -25.5580    52.7120    46.4070 hc         1 RXY       0.068200
     82 H33        -26.1500    51.0070    46.4660 hc         1 RXY       0.068200
     83 H34        -21.7740    53.3010    48.5150 h1         1 RXY       0.093700
     84 H35        -23.5810    52.4610    50.1920 h1         1 RXY       0.042200
     85 H36        -22.8300    50.8670    50.0160 h1         1 RXY       0.042200
     86 H39        -23.2630    54.7590    49.6490 h1         1 RXY       0.021700
     87 H38        -22.9420    56.1670    50.6880 h1         1 RXY       0.021700
     88 H41        -21.4890    55.5620    48.0360 h1         1 RXY       0.032700
     89 H40        -21.1970    56.9720    49.0790 h1         1 RXY       0.032700
     90 H42        -22.5960    57.4820    47.2040 hn         1 RXY       0.377500
     91 H44        -23.6820    56.3520    47.6000 hn         1 RXY       0.377500
     92 H46        -21.5140    51.0860    46.7970 h1         1 RXY       0.060700
     93 H45        -21.2150    50.3960    48.3860 h1         1 RXY       0.060700
     94 H47        -20.2240    54.3610    45.5480 hc         1 RXY       0.059700
     95 H48        -21.4410    53.1340    45.9800 hc         1 RXY       0.059700
     96 H49        -19.9870    51.3730    44.9100 hc         1 RXY       0.055700
     97 H50        -18.8520    52.6370    44.4430 hc         1 RXY       0.055700
     98 H51        -20.7040    53.7500    43.0950 hc         1 RXY       0.033200
     99 H52        -21.7840    52.4420    43.5530 hc         1 RXY       0.033200
    100 H54        -21.0330    51.9460    41.3440 hc         1 RXY       0.035200
    101 H53        -20.2430    50.7980    42.4140 hc         1 RXY       0.035200
    102 H55        -18.1130    52.1440    42.2970 hc         1 RXY       0.044200
    103 H56        -18.9380    53.3610    41.3300 hc         1 RXY       0.044200
    104 H57        -17.6480    52.0600    39.7970 hc         1 RXY       0.037200
    105 H58        -19.3260    51.6130    39.5310 hc         1 RXY       0.037200
    106 H60        -18.9000    49.5620    41.0420 hc         1 RXY       0.046700
    107 H59        -17.2080    50.0000    41.0600 hc         1 RXY       0.046700
    108 H61        -17.0230    49.6690    38.5920 ha         1 RXY       0.165000
    109 H62        -18.4330    47.9490    37.6360 ha         1 RXY       0.162000
    110 H63        -20.1880    46.8400    38.7360 hc         1 RXY       0.042200
    111 H64        -19.7880    47.5690    40.2680 hc         1 RXY       0.042200
    112 H66        -20.9300    49.7400    39.4400 hc         1 RXY       0.038200
    113 H65        -21.3620    48.8690    37.9820 hc         1 RXY       0.038200
    114 H68        -23.3190    48.6340    39.1290 hc         1 RXY       0.033700
    115 H67        -22.5440    47.1540    39.6620 hc         1 RXY       0.033700
    116 H69        -22.6650    49.8060    41.2160 hc         1 RXY       0.039200
    117 H70        -23.7470    48.4410    41.4470 hc         1 RXY       0.039200
    118 H71        -21.7800    47.0280    42.1830 hc         1 RXY       0.037200
    119 H72        -20.7470    48.4540    42.0530 hc         1 RXY       0.037200
    120 H203       -21.4280    48.1400    44.4000 hc         1 RXY       0.033033
    121 H73        -22.1360    49.6440    43.7730 hc         1 RXY       0.033033
    122 H74        -23.1440    48.1880    43.9470 hc         1 RXY       0.033033
@<TRIPOS>BOND
     1     1     2 1   
     2     1    50 1   
     3     1    51 1   
     4     1    52 1   
     5     2     3 1   
     6     2    53 1   
     7     2    54 1   
     8     3     4 1   
     9     3    55 1   
    10     3    56 1   
    11     4     5 1   
    12     4    57 1   
    13     4    58 1   
    14     5     6 1   
    15     5    59 1   
    16     5    60 1   
    17     6     7 1   
    18     6    61 1   
    19     6    62 1   
    20     7     8 1   
    21     7    63 1   
    22     7    64 1   
    23     8     9 1   
    24     8    65 1   
    25     8    66 1   
    26     9    10 2   
    27     9    67 1   
    28    10    11 1   
    29    10    68 1   
    30    11    12 1   
    31    11    69 1   
    32    11    70 1   
    33    12    13 1   
    34    12    71 1   
    35    12    72 1   
    36    13    14 1   
    37    13    73 1   
    38    13    74 1   
    39    14    15 1   
    40    14    75 1   
    41    14    76 1   
    42    15    16 1   
    43    15    77 1   
    44    15    78 1   
    45    16    17 1   
    46    16    79 1   
    47    16    80 1   
    48    17    18 1   
    49    17    81 1   
    50    17    82 1   
    51    18    19 2   
    52    18    20 1   
    53    20    21 1   
    54    21    22 1   
    55    21    31 1   
    56    21    83 1   
    57    22    23 1   
    58    22    84 1   
    59    22    85 1   
    60    23    24 1   
    61    24    25 1   
    62    24    26 1   
    63    24    27 1   
    64    27    28 1   
    65    28    29 1   
    66    28    86 1   
    67    28    87 1   
    68    29    30 1   
    69    29    88 1   
    70    29    89 1   
    71    30    90 1   
    72    30    91 1   
    73    31    32 1   
    74    31    92 1   
    75    31    93 1   
    76    32    33 1   
    77    33    34 2   
    78    33    35 1   
    79    35    36 1   
    80    35    94 1   
    81    35    95 1   
    82    36    37 1   
    83    36    96 1   
    84    36    97 1   
    85    37    38 1   
    86    37    98 1   
    87    37    99 1   
    88    38    39 1   
    89    38   100 1   
    90    38   101 1   
    91    39    40 1   
    92    39   102 1   
    93    39   103 1   
    94    40    41 1   
    95    40   104 1   
    96    40   105 1   
    97    41    42 1   
    98    41   106 1   
    99    41   107 1   
   100    42    43 2   
   101    42   108 1   
   102    43    44 1   
   103    43   109 1   
   104    44    45 1   
   105    44   110 1   
   106    44   111 1   
   107    45    46 1   
   108    45   112 1   
   109    45   113 1   
   110    46    47 1   
   111    46   114 1   
   112    46   115 1   
   113    47    48 1   
   114    47   116 1   
   115    47   117 1   
   116    48    49 1   
   117    48   118 1   
   118    48   119 1   
   119    49   120 1   
   120    49   121 1   
   121    49   122 1   
@<TRIPOS>SUBSTRUCTURE
     1 RXY         1 TEMP              0 ****  ****    0 ROOT
