@<TRIPOS>MOLECULE
RXY
  122   121     1     0     0
SMALL
abcg2


@<TRIPOS>ATOM
      1 CBE        -26.1840    48.0300    43.2450 c3         1 RXY      -0.094100
      2 CBF        -26.7640    46.6290    43.1030 c3         1 RXY      -0.072400
      3 CBG        -25.9870    45.7400    42.1350 c3         1 RXY      -0.075400
      4 CBH        -26.0990    46.1540    40.6720 c3         1 RXY      -0.076400
      5 CBI        -25.2780    45.2590    39.7530 c3         1 RXY      -0.074400
      6 CBJ        -25.4190    45.5380    38.2580 c3         1 RXY      -0.070400
      7 CBK        -24.9780    46.9380    37.8170 c3         1 RXY      -0.074400
      8 CBL        -26.1100    47.9680    37.7510 c3         1 RXY      -0.044200
      9 CBM        -25.6090    49.3130    37.3260 c2         1 RXY      -0.218200
     10 CBN        -25.7970    50.4830    37.9350 c2         1 RXY      -0.215200
     11 CBO        -26.5730    50.7480    39.1880 c3         1 RXY      -0.043200
     12 CBP        -25.6750    51.0350    40.3920 c3         1 RXY      -0.074400
     13 CBQ        -26.4630    51.4470    41.6290 c3         1 RXY      -0.076400
     14 CBR        -25.5880    51.6540    42.8570 c3         1 RXY      -0.076400
     15 CBS        -26.3850    51.9930    44.1120 c3         1 RXY      -0.076400
     16 CBT        -25.5000    52.1200    45.3450 c3         1 RXY      -0.068400
     17 CBU        -26.2940    52.4980    46.6000 c3         1 RXY      -0.139400
     18 CBV        -25.4840    52.3800    47.8630 c          1 RXY       0.594100
     19 OBY        -25.8200    51.7850    48.8560 o          1 RXY      -0.485000
     20 OBW        -24.3110    52.9980    47.7410 os         1 RXY      -0.460100
     21 CAW        -23.2560    52.7820    48.6850 c3         1 RXY       0.107300
     22 CAX        -23.4550    53.5860    49.9670 c3         1 RXY       0.210600
     23 OAY        -22.3090    53.4440    50.7740 os         1 RXY      -0.575400
     24 PAZ        -21.1030    54.5760    50.7900 p5         1 RXY       1.393800
     25 OBX        -21.7050    55.9440    50.8780 o          1 RXY      -0.804500
     26 OAB        -20.1190    54.0510    51.7810 o          1 RXY      -0.804500
     27 OBA        -20.4310    54.3770    49.3000 os         1 RXY      -0.612400
     28 CBB        -20.6560    55.2990    48.2470 c3         1 RXY       0.233600
     29 CBC        -20.0520    54.7270    46.9770 c3         1 RXY       0.128800
     30 NBD        -20.2550    55.6560    45.8760 n8         1 RXY      -1.001200
     31 CAV        -22.9790    51.2870    48.9280 c3         1 RXY       0.168600
     32 OAU        -21.5790    51.0160    48.9520 os         1 RXY      -0.406100
     33 CAT        -20.8650    50.8890    47.8280 c          1 RXY       0.602100
     34 OAA        -19.6820    50.6980    47.9410 o          1 RXY      -0.435000
     35 CAS        -21.5750    50.9710    46.5000 c3         1 RXY      -0.195400
     36 CAR        -20.6370    50.9870    45.3040 c3         1 RXY      -0.066400
     37 CAQ        -21.4100    51.2520    44.0170 c3         1 RXY      -0.078400
     38 CAP        -20.5520    51.1730    42.7600 c3         1 RXY      -0.074400
     39 CAO        -19.4280    52.2030    42.7100 c3         1 RXY      -0.076400
     40 CAN        -18.7080    52.2520    41.3650 c3         1 RXY      -0.069400
     41 CAM        -17.9300    50.9720    41.0400 c3         1 RXY      -0.048200
     42 CAL        -17.2570    51.0460    39.7040 c2         1 RXY      -0.209200
     43 CAK        -17.6780    50.4680    38.5780 c2         1 RXY      -0.226200
     44 CAJ        -18.9160    49.6330    38.4310 c3         1 RXY      -0.042200
     45 CAI        -20.1220    50.4840    38.0140 c3         1 RXY      -0.071400
     46 CAH        -21.4560    49.7400    37.9320 c3         1 RXY      -0.068400
     47 CAG        -22.2110    49.5740    39.2510 c3         1 RXY      -0.079400
     48 CAF        -21.6880    48.5230    40.2230 c3         1 RXY      -0.074400
     49 CAE        -22.6420    48.3030    41.3900 c3         1 RXY      -0.095100
     50 H1         -26.7500    48.6270    43.9620 hc         1 RXY       0.033367
     51 H2         -25.1490    47.9930    43.5920 hc         1 RXY       0.033367
     52 H3         -26.1910    48.5750    42.3000 hc         1 RXY       0.033367
     53 H4         -27.8070    46.6930    42.7780 hc         1 RXY       0.036200
     54 H5         -26.7840    46.1520    44.0860 hc         1 RXY       0.036200
     55 H6         -26.3380    44.7080    42.2350 hc         1 RXY       0.036200
     56 H7         -24.9310    45.7300    42.4300 hc         1 RXY       0.036200
     57 H9         -25.7760    47.1940    40.5560 hc         1 RXY       0.039200
     58 H8         -27.1520    46.1280    40.3680 hc         1 RXY       0.039200
     59 H10        -25.5540    44.2150    39.9380 hc         1 RXY       0.035700
     60 H11        -24.2210    45.3420    40.0300 hc         1 RXY       0.035700
     61 H13        -26.4560    45.3680    37.9470 hc         1 RXY       0.035700
     62 H12        -24.8250    44.7920    37.7240 hc         1 RXY       0.035700
     63 H15        -24.1890    47.3020    38.4850 hc         1 RXY       0.040200
     64 H14        -24.5190    46.8810    36.8260 hc         1 RXY       0.040200
     65 H17        -26.8510    47.6090    37.0270 hc         1 RXY       0.044700
     66 H16        -26.6260    48.0280    38.7090 hc         1 RXY       0.044700
     67 H18        -25.0060    49.3120    36.4200 ha         1 RXY       0.162000
     68 H19        -25.3220    51.3570    37.4950 ha         1 RXY       0.165000
     69 H21        -27.2240    51.6130    39.0210 hc         1 RXY       0.041700
     70 H20        -27.2360    49.9130    39.4270 hc         1 RXY       0.041700
     71 H23        -25.0850    50.1400    40.6150 hc         1 RXY       0.042200
     72 H22        -24.9520    51.8180    40.1400 hc         1 RXY       0.042200
     73 H25        -27.0200    52.3650    41.4140 hc         1 RXY       0.036200
     74 H24        -27.2160    50.6820    41.8470 hc         1 RXY       0.036200
     75 H26        -25.0010    50.7460    43.0390 hc         1 RXY       0.040200
     76 H27        -24.8610    52.4500    42.6610 hc         1 RXY       0.040200
     77 H28        -26.9370    52.9260    43.9550 hc         1 RXY       0.037200
     78 H29        -27.1370    51.2160    44.2830 hc         1 RXY       0.037200
     79 H31        -24.9830    51.1680    45.5070 hc         1 RXY       0.049200
     80 H30        -24.7240    52.8660    45.1600 hc         1 RXY       0.049200
     81 H32        -26.6580    53.5270    46.5090 hc         1 RXY       0.068200
     82 H33        -27.1720    51.8600    46.7050 hc         1 RXY       0.068200
     83 H34        -22.3950    53.2030    48.1670 h1         1 RXY       0.093700
     84 H35        -23.6600    54.6320    49.7150 h1         1 RXY       0.042200
     85 H36        -24.3120    53.2050    50.5270 h1         1 RXY       0.042200
     86 H39        -21.7260    55.4820    48.0900 h1         1 RXY       0.021700
     87 H38        -20.1950    56.2670    48.4650 h1         1 RXY       0.021700
     88 H41        -20.4740    53.7280    46.7940 h1         1 RXY       0.032700
     89 H40        -18.9770    54.5900    47.1210 h1         1 RXY       0.032700
     90 H42        -19.7720    55.3160    45.0550 hn         1 RXY       0.377500
     91 H44        -21.2360    55.6750    45.6270 hn         1 RXY       0.377500
     92 H46        -23.4690    50.6650    48.1770 h1         1 RXY       0.060700
     93 H45        -23.3450    50.9680    49.9020 h1         1 RXY       0.060700
     94 H47        -22.2080    51.8600    46.4610 hc         1 RXY       0.059700
     95 H48        -22.2670    50.1240    46.4170 hc         1 RXY       0.059700
     96 H49        -20.1040    50.0350    45.2280 hc         1 RXY       0.055700
     97 H50        -19.8780    51.7590    45.4470 hc         1 RXY       0.055700
     98 H51        -21.8790    52.2400    44.0770 hc         1 RXY       0.033200
     99 H52        -22.2320    50.5320    43.9350 hc         1 RXY       0.033200
    100 H54        -21.1960    51.3100    41.8840 hc         1 RXY       0.035200
    101 H53        -20.1420    50.1620    42.6760 hc         1 RXY       0.035200
    102 H55        -18.6970    52.0050    43.5000 hc         1 RXY       0.044200
    103 H56        -19.8460    53.1930    42.9270 hc         1 RXY       0.044200
    104 H57        -18.0210    53.1020    41.3510 hc         1 RXY       0.037200
    105 H58        -19.4390    52.4380    40.5720 hc         1 RXY       0.037200
    106 H60        -18.6020    50.1140    41.0810 hc         1 RXY       0.046700
    107 H59        -17.1800    50.8130    41.8210 hc         1 RXY       0.046700
    108 H61        -16.3660    51.6670    39.6560 ha         1 RXY       0.165000
    109 H62        -17.1100    50.6490    37.6700 ha         1 RXY       0.162000
    110 H63        -18.7530    48.8600    37.6750 hc         1 RXY       0.042200
    111 H64        -19.1350    49.1080    39.3610 hc         1 RXY       0.042200
    112 H66        -20.2230    51.3240    38.7090 hc         1 RXY       0.038200
    113 H65        -19.8990    50.9310    37.0410 hc         1 RXY       0.038200
    114 H68        -22.1080    50.2970    37.2530 hc         1 RXY       0.033700
    115 H67        -21.3110    48.7600    37.4630 hc         1 RXY       0.033700
    116 H69        -22.2620    50.5430    39.7630 hc         1 RXY       0.039200
    117 H70        -23.2480    49.3190    39.0130 hc         1 RXY       0.039200
    118 H71        -21.5390    47.5780    39.6900 hc         1 RXY       0.037200
    119 H72        -20.7100    48.8090    40.6170 hc         1 RXY       0.037200
    120 H203       -22.2600    47.5600    42.0900 hc         1 RXY       0.033033
    121 H73        -22.8070    49.2290    41.9450 hc         1 RXY       0.033033
    122 H74        -23.6180    47.9600    41.0390 hc         1 RXY       0.033033
@<TRIPOS>BOND
     1     1     2 1   
     2     1    50 1   
     3     1    51 1   
     4     1    52 1   
     5     2     3 1   
     6     2    53 1   
     7     2    54 1   
     8     3     4 1   
     9     3    55 1   
    10     3    56 1   
    11     4     5 1   
    12     4    57 1   
    13     4    58 1   
    14     5     6 1   
    15     5    59 1   
    16     5    60 1   
    17     6     7 1   
    18     6    61 1   
    19     6    62 1   
    20     7     8 1   
    21     7    63 1   
    22     7    64 1   
    23     8     9 1   
    24     8    65 1   
    25     8    66 1   
    26     9    10 2   
    27     9    67 1   
    28    10    11 1   
    29    10    68 1   
    30    11    12 1   
    31    11    69 1   
    32    11    70 1   
    33    12    13 1   
    34    12    71 1   
    35    12    72 1   
    36    13    14 1   
    37    13    73 1   
    38    13    74 1   
    39    14    15 1   
    40    14    75 1   
    41    14    76 1   
    42    15    16 1   
    43    15    77 1   
    44    15    78 1   
    45    16    17 1   
    46    16    79 1   
    47    16    80 1   
    48    17    18 1   
    49    17    81 1   
    50    17    82 1   
    51    18    19 2   
    52    18    20 1   
    53    20    21 1   
    54    21    22 1   
    55    21    31 1   
    56    21    83 1   
    57    22    23 1   
    58    22    84 1   
    59    22    85 1   
    60    23    24 1   
    61    24    25 1   
    62    24    26 1   
    63    24    27 1   
    64    27    28 1   
    65    28    29 1   
    66    28    86 1   
    67    28    87 1   
    68    29    30 1   
    69    29    88 1   
    70    29    89 1   
    71    30    90 1   
    72    30    91 1   
    73    31    32 1   
    74    31    92 1   
    75    31    93 1   
    76    32    33 1   
    77    33    34 2   
    78    33    35 1   
    79    35    36 1   
    80    35    94 1   
    81    35    95 1   
    82    36    37 1   
    83    36    96 1   
    84    36    97 1   
    85    37    38 1   
    86    37    98 1   
    87    37    99 1   
    88    38    39 1   
    89    38   100 1   
    90    38   101 1   
    91    39    40 1   
    92    39   102 1   
    93    39   103 1   
    94    40    41 1   
    95    40   104 1   
    96    40   105 1   
    97    41    42 1   
    98    41   106 1   
    99    41   107 1   
   100    42    43 2   
   101    42   108 1   
   102    43    44 1   
   103    43   109 1   
   104    44    45 1   
   105    44   110 1   
   106    44   111 1   
   107    45    46 1   
   108    45   112 1   
   109    45   113 1   
   110    46    47 1   
   111    46   114 1   
   112    46   115 1   
   113    47    48 1   
   114    47   116 1   
   115    47   117 1   
   116    48    49 1   
   117    48   118 1   
   118    48   119 1   
   119    49   120 1   
   120    49   121 1   
   121    49   122 1   
@<TRIPOS>SUBSTRUCTURE
     1 RXY         1 TEMP              0 ****  ****    0 ROOT
