@<TRIPOS>MOLECULE
RXZ
   61    65     1     0     0
SMALL
abcg2


@<TRIPOS>ATOM
      1 C4          -3.7450    -0.7800     1.1530 c3         1 RXZ       0.118500
      2 C5          -4.7550    -0.8710     0.0410 ca         1 RXZ       0.340300
      3 C6          -4.7830    -1.9720    -0.8050 ca         1 RXZ      -0.159000
      4 N1          -2.8620     0.3620     1.0200 n3         1 RXZ      -0.696600
      5 C7          -5.7380    -2.0280    -1.8100 ca         1 RXZ      -0.073000
      6 C8          -6.6300    -0.9760    -1.9360 ca         1 RXZ      -0.163000
      7 N2          -5.6160     0.1390    -0.0770 nb         1 RXZ      -0.645000
      8 C9          -6.5220     0.0810    -1.0440 ca         1 RXZ       0.335900
      9 C10          0.8230     2.4200     0.7830 ca         1 RXZ       0.226000
     10 C11          0.8330     3.7350     1.2160 ca         1 RXZ      -0.124000
     11 C12          1.9560     4.5340     1.0470 ca         1 RXZ      -0.075000
     12 C13          3.0760     4.0070     0.4290 ca         1 RXZ      -0.181300
     13 C14          3.1000     2.6830     0.0020 ca         1 RXZ      -0.086000
     14 C15          1.9830     1.8820     0.1880 ca         1 RXZ      -0.023000
     15 N4          -2.2840    -5.3830     0.8500 nb         1 RXZ      -0.654000
     16 F2           4.2040     6.0510     0.7530 f          1 RXZ      -0.112333
     17 C26          4.3000     4.8400     0.1970 c3         1 RXZ       0.359300
     18 F            5.3940     4.2580     0.7010 f          1 RXZ      -0.112333
     19 F1           4.5250     5.0220    -1.1100 f          1 RXZ      -0.112333
     20 C16          2.7330    -0.1910    -0.9510 c          1 RXZ       0.549600
     21 O1           3.7190     0.2310    -1.5150 o          1 RXZ      -0.562100
     22 C17          2.3100    -1.5890    -1.1350 cc         1 RXZ       0.061500
     23 O            1.2190    -2.0500    -0.4870 os         1 RXZ      -0.236000
     24 C20          1.0210    -3.3280    -0.8590 cc         1 RXZ       0.199500
     25 C21         -0.1050    -4.0270    -0.2690 ca         1 RXZ      -0.087500
     26 C25         -0.7290    -3.5650     0.8890 ca         1 RXZ      -0.145000
     27 C24         -1.8020    -4.2770     1.3990 ca         1 RXZ       0.332400
     28 C23         -1.6840    -5.8240    -0.2480 ca         1 RXZ       0.332400
     29 C22         -0.6050    -5.1940    -0.8430 ca         1 RXZ      -0.145000
     30 C19          1.9890    -3.6970    -1.7470 cd         1 RXZ      -0.169000
     31 C18          2.8260    -2.5680    -1.9230 cd         1 RXZ      -0.101000
     32 N           -0.2890     1.5600     0.9110 nh         1 RXZ      -0.801400
     33 C1          -1.1200     1.7100     2.0890 c6         1 RXZ       0.182300
     34 C2          -1.1150     1.4620    -0.2880 c6         1 RXZ       0.182300
     35 C3          -2.0430     0.2700    -0.1740 c6         1 RXZ       0.160300
     36 C           -2.0350     0.5060     2.2020 c6         1 RXZ       0.160300
     37 H1          -4.2780    -0.6950     2.1050 h1         1 RXZ       0.042700
     38 H2          -3.1800    -1.7250     1.2000 h1         1 RXZ       0.042700
     39 H3          -4.0680    -2.7750    -0.6820 ha         1 RXZ       0.123000
     40 H5          -5.7810    -2.8750    -2.4800 ha         1 RXZ       0.120000
     41 H6          -7.3910    -0.9710    -2.7020 ha         1 RXZ       0.124000
     42 H7          -7.2090     0.9170    -1.1150 h4         1 RXZ       0.020100
     43 H8          -0.0460     4.1580     1.6850 ha         1 RXZ       0.124000
     44 H9           1.9300     5.5570     1.3910 ha         1 RXZ       0.134000
     45 H10          1.1120     0.0790     0.2780 hn         1 RXZ       0.191000
     46 H11          3.9850     2.2680    -0.4560 ha         1 RXZ       0.160000
     47 H12         -0.3820    -2.6790     1.4030 ha         1 RXZ       0.132000
     48 H13         -2.2930    -3.9380     2.3040 h4         1 RXZ       0.023100
     49 H14         -2.0870    -6.7300    -0.6860 h4         1 RXZ       0.023100
     50 H15         -0.1790    -5.6020    -1.7500 ha         1 RXZ       0.132000
     51 H16          2.1030    -4.6650    -2.2060 ha         1 RXZ       0.150000
     52 H17          3.6970    -2.4830    -2.5500 ha         1 RXZ       0.163000
     53 H18         -0.4860     1.7690     2.9750 h1         1 RXZ       0.049700
     54 H19         -1.7330     2.6240     2.0550 h1         1 RXZ       0.049700
     55 H20         -1.7010     2.3820    -0.4340 h1         1 RXZ       0.049700
     56 H21         -0.4780     1.3440    -1.1650 h1         1 RXZ       0.049700
     57 H22         -1.4420    -0.6560    -0.1810 h1         1 RXZ       0.039950
     58 H23         -2.6860     0.2380    -1.0560 h1         1 RXZ       0.039950
     59 H24         -2.6840     0.6270     3.0740 h1         1 RXZ       0.039950
     60 H25         -1.4160    -0.3910     2.3810 h1         1 RXZ       0.039950
     61 N3           1.9170     0.5320    -0.1380 ns         1 RXZ      -0.139000
@<TRIPOS>BOND
     1     1     2 1   
     2     1     4 1   
     3     1    37 1   
     4     1    38 1   
     5     2     3 ar  
     6     2     7 ar  
     7     3     5 ar  
     8     3    39 1   
     9     4    35 1   
    10     4    36 1   
    11     5     6 ar  
    12     5    40 1   
    13     6     8 ar  
    14     6    41 1   
    15     7     8 ar  
    16     8    42 1   
    17     9    10 ar  
    18     9    14 ar  
    19     9    32 1   
    20    10    11 ar  
    21    10    43 1   
    22    11    12 ar  
    23    11    44 1   
    24    12    13 ar  
    25    12    17 1   
    26    13    14 ar  
    27    13    46 1   
    28    14    61 1   
    29    15    27 ar  
    30    15    28 ar  
    31    16    17 1   
    32    17    18 1   
    33    17    19 1   
    34    20    21 2   
    35    20    22 1   
    36    20    61 1   
    37    22    23 1   
    38    22    31 2   
    39    23    24 1   
    40    24    25 1   
    41    24    30 2   
    42    25    26 ar  
    43    25    29 ar  
    44    26    27 ar  
    45    26    47 1   
    46    27    48 1   
    47    28    29 ar  
    48    28    49 1   
    49    29    50 1   
    50    30    31 1   
    51    30    51 1   
    52    31    52 1   
    53    32    33 1   
    54    32    34 1   
    55    33    36 1   
    56    33    53 1   
    57    33    54 1   
    58    34    35 1   
    59    34    55 1   
    60    34    56 1   
    61    35    57 1   
    62    35    58 1   
    63    36    59 1   
    64    36    60 1   
    65    45    61 1   
@<TRIPOS>SUBSTRUCTURE
     1 RXZ         1 TEMP              0 ****  ****    0 ROOT
