@<TRIPOS>MOLECULE
RXZ
   61    65     1     0     0
SMALL
No Charge or Current Charge


@<TRIPOS>ATOM
      1 C4          -3.7780    -0.7170     1.3070 c3         1 RXZ       0.118500
      2 C5          -4.7480    -1.0410     0.1550 ca         1 RXZ       0.340300
      3 C6          -4.3740    -1.9470    -0.8610 ca         1 RXZ      -0.159000
      4 N1          -2.8770     0.4560     1.1050 n3         1 RXZ      -0.696600
      5 C7          -5.2770    -2.2350    -1.8960 ca         1 RXZ      -0.073000
      6 C8          -6.5300    -1.6040    -1.8720 ca         1 RXZ      -0.163000
      7 N2          -5.9650    -0.4390     0.1760 nb         1 RXZ      -0.645000
      8 C9          -6.8320    -0.7180    -0.8240 ca         1 RXZ       0.335900
      9 C10          0.9390     2.6120     0.7380 ca         1 RXZ       0.226000
     10 C11          1.0110     3.9530     1.1530 ca         1 RXZ      -0.124000
     11 C12          2.1990     4.6860     1.0060 ca         1 RXZ      -0.075000
     12 C13          3.3460     4.0830     0.4470 ca         1 RXZ      -0.181300
     13 C14          3.2740     2.7370     0.0250 ca         1 RXZ      -0.086000
     14 C15          2.0790     1.9980     0.1670 ca         1 RXZ      -0.023000
     15 N4          -2.6530    -5.4600     0.5600 nb         1 RXZ      -0.654000
     16 F2           4.7200     5.9510     1.0920 f          1 RXZ      -0.112333
     17 C26          4.6500     4.8730     0.2760 c3         1 RXZ       0.359300
     18 F            5.7390     4.1170     0.5450 f          1 RXZ      -0.112333
     19 F1           4.7860     5.3270    -0.9890 f          1 RXZ      -0.112333
     20 C16          2.7580    -0.2080    -0.9730 c          1 RXZ       0.549600
     21 O1           3.8130     0.1230    -1.5050 o          1 RXZ      -0.562100
     22 C17          2.1580    -1.5630    -1.0900 cc         1 RXZ       0.061500
     23 O            0.9740    -1.9270    -0.4760 os         1 RXZ      -0.236000
     24 C20          0.7530    -3.2300    -0.8450 cc         1 RXZ       0.199500
     25 C21         -0.4040    -3.9960    -0.3770 ca         1 RXZ      -0.087500
     26 C25         -1.1330    -3.5810     0.7560 ca         1 RXZ      -0.145000
     27 C24         -2.2360    -4.3370     1.1890 ca         1 RXZ       0.332400
     28 C23         -1.9600    -5.8610    -0.5300 ca         1 RXZ       0.332400
     29 C22         -0.8420    -5.1680    -1.0270 ca         1 RXZ      -0.145000
     30 C19          1.7560    -3.6960    -1.6510 cd         1 RXZ      -0.169000
     31 C18          2.6610    -2.6220    -1.8080 cd         1 RXZ      -0.101000
     32 N           -0.2680     1.8810     0.8760 nh         1 RXZ      -0.801400
     33 C1          -1.0840     1.9660     2.1260 c6         1 RXZ       0.182300
     34 C2          -1.1090     1.6040    -0.3290 c6         1 RXZ       0.182300
     35 C3          -2.0290     0.3580    -0.1260 c6         1 RXZ       0.160300
     36 C           -2.0130     0.7190     2.3000 c6         1 RXZ       0.160300
     37 H1          -4.3770    -0.5590     2.2140 h1         1 RXZ       0.042700
     38 H2          -3.1720    -1.6120     1.4970 h1         1 RXZ       0.042700
     39 H3          -3.3940    -2.4140    -0.8440 ha         1 RXZ       0.123000
     40 H5          -5.0130    -2.9280    -2.6930 ha         1 RXZ       0.120000
     41 H6          -7.2640    -1.7950    -2.6510 ha         1 RXZ       0.124000
     42 H7          -7.7990    -0.2180    -0.7820 h4         1 RXZ       0.020100
     43 H8           0.1370     4.4360     1.5790 ha         1 RXZ       0.124000
     44 H9           2.2200     5.7260     1.3280 ha         1 RXZ       0.134000
     45 H10          1.1120     0.2040     0.1260 hn         1 RXZ       0.191000
     46 H11          4.1590     2.2740    -0.4020 ha         1 RXZ       0.160000
     47 H12         -0.8480    -2.6890     1.3070 ha         1 RXZ       0.132000
     48 H13         -2.8060    -4.0320     2.0650 h4         1 RXZ       0.023100
     49 H14         -2.3140    -6.7660    -1.0230 h4         1 RXZ       0.023100
     50 H15         -0.3380    -5.5460    -1.9110 ha         1 RXZ       0.132000
     51 H16          1.8460    -4.6900    -2.0750 ha         1 RXZ       0.150000
     52 H17          3.5790    -2.6240    -2.3870 ha         1 RXZ       0.163000
     53 H18         -0.4280     2.0390     3.0050 h1         1 RXZ       0.049700
     54 H19         -1.7090     2.8710     2.1050 h1         1 RXZ       0.049700
     55 H20         -1.7410     2.4770    -0.5490 h1         1 RXZ       0.049700
     56 H21         -0.4770     1.4330    -1.2130 h1         1 RXZ       0.049700
     57 H22         -1.3950    -0.5390    -0.0750 h1         1 RXZ       0.039950
     58 H23         -2.6600     0.2540    -1.0200 h1         1 RXZ       0.039950
     59 H24         -2.6370     0.8720     3.1920 h1         1 RXZ       0.039950
     60 H25         -1.3780    -0.1560     2.5010 h1         1 RXZ       0.039950
     61 N3           1.9650     0.6340    -0.2130 ns         1 RXZ      -0.139000
@<TRIPOS>BOND
     1     1     2 1   
     2     1     4 1   
     3     1    37 1   
     4     1    38 1   
     5     2     3 ar  
     6     2     7 ar  
     7     3     5 ar  
     8     3    39 1   
     9     4    35 1   
    10     4    36 1   
    11     5     6 ar  
    12     5    40 1   
    13     6     8 ar  
    14     6    41 1   
    15     7     8 ar  
    16     8    42 1   
    17     9    10 ar  
    18     9    14 ar  
    19     9    32 1   
    20    10    11 ar  
    21    10    43 1   
    22    11    12 ar  
    23    11    44 1   
    24    12    13 ar  
    25    12    17 1   
    26    13    14 ar  
    27    13    46 1   
    28    14    61 1   
    29    15    27 ar  
    30    15    28 ar  
    31    16    17 1   
    32    17    18 1   
    33    17    19 1   
    34    20    21 2   
    35    20    22 1   
    36    20    61 1   
    37    22    23 1   
    38    22    31 2   
    39    23    24 1   
    40    24    25 1   
    41    24    30 2   
    42    25    26 ar  
    43    25    29 ar  
    44    26    27 ar  
    45    26    47 1   
    46    27    48 1   
    47    28    29 ar  
    48    28    49 1   
    49    29    50 1   
    50    30    31 1   
    51    30    51 1   
    52    31    52 1   
    53    32    33 1   
    54    32    34 1   
    55    33    36 1   
    56    33    53 1   
    57    33    54 1   
    58    34    35 1   
    59    34    55 1   
    60    34    56 1   
    61    35    57 1   
    62    35    58 1   
    63    36    59 1   
    64    36    60 1   
    65    45    61 1   
@<TRIPOS>SUBSTRUCTURE
     1 RXZ         1 TEMP              0 ****  ****    0 ROOT
