@<TRIPOS>MOLECULE
RY0
   49    52     1     0     0
SMALL
abcg2


@<TRIPOS>ATOM
      1 C02        -20.2600   -16.0440    -6.8410 ce         1 RY0       0.695800
      2 C04        -19.9750   -17.4660    -6.5920 cc         1 RY0      -0.286900
      3 C05        -19.0280   -18.0330    -5.7810 cd         1 RY0      -0.097000
      4 C06        -19.0360   -19.4610    -5.8060 cd         1 RY0      -0.066000
      5 C07        -20.0130   -19.9340    -6.6520 cc         1 RY0      -0.252000
      6 C09        -18.1220   -20.3130    -5.0250 ca         1 RY0       0.019000
      7 C10        -17.8180   -21.6120    -5.4420 ca         1 RY0      -0.125000
      8 C11        -16.9670   -22.4050    -4.6830 ca         1 RY0      -0.081000
      9 C12        -16.4040   -21.9200    -3.5130 ca         1 RY0      -0.160000
     10 C13        -16.6930   -20.6180    -3.0910 ca         1 RY0      -0.022000
     11 C15        -16.1610   -18.9850    -1.2750 c          1 RY0       0.594100
     12 C17        -15.3240   -18.9110     0.0080 cy         1 RY0       0.061000
     13 C18        -15.6560   -17.7120     0.9280 cy         1 RY0      -0.078900
     14 C19        -14.4470   -16.9490     0.3360 cy         1 RY0      -0.083400
     15 C20        -13.9350   -18.2780    -0.2700 cy         1 RY0      -0.078900
     16 C22        -16.2690   -20.7720     1.2240 ca         1 RY0       0.123100
     17 C23        -17.5540   -20.2360     1.2180 ca         1 RY0      -0.152000
     18 C24        -18.5900   -20.9170     1.8510 ca         1 RY0      -0.067500
     19 C25        -18.3350   -22.1230     2.4820 ca         1 RY0       0.093000
     20 C27        -17.0560   -22.6670     2.4910 ca         1 RY0      -0.067500
     21 C28        -16.0250   -21.9890     1.8620 ca         1 RY0      -0.152000
     22 C29        -17.5520   -19.8200    -3.8460 ca         1 RY0      -0.129000
     23 N01        -21.0720   -15.7330    -7.7920 n2         1 RY0      -0.846100
     24 N03        -19.5850   -15.1570    -6.0460 nv         1 RY0      -1.077200
     25 N14        -16.0960   -20.1890    -1.8930 ns         1 RY0      -0.136000
     26 O16        -16.7660   -18.0060    -1.6950 o          1 RY0      -0.587100
     27 O21        -15.1860   -20.1920     0.6200 os         1 RY0      -0.350100
     28 S08        -20.9020   -18.6810    -7.4060 ss         1 RY0       0.318000
     29 CL26       -19.6430   -22.9770     3.2780 cl         1 RY0      -0.208000
     30 H051       -18.3200   -17.4560    -5.2040 ha         1 RY0       0.139000
     31 H071       -20.2670   -20.9630    -6.8530 h4         1 RY0       0.150000
     32 H101       -18.2320   -21.9980    -6.3640 ha         1 RY0       0.117000
     33 H111       -16.7330   -23.4100    -5.0100 ha         1 RY0       0.115000
     34 H121       -15.7390   -22.5400    -2.9240 ha         1 RY0       0.113000
     35 H181       -16.6380   -17.2620     0.8050 hc         1 RY0       0.071200
     36 H182       -15.5050   -17.9930     1.9700 hc         1 RY0       0.071200
     37 H192       -13.7860   -16.4580     1.0480 hc         1 RY0       0.063700
     38 H191       -14.7470   -16.2350    -0.4280 hc         1 RY0       0.063700
     39 H201       -13.1880   -18.7650     0.3550 hc         1 RY0       0.071200
     40 H202       -13.6000   -18.2740    -1.3050 hc         1 RY0       0.071200
     41 H231       -17.7730   -19.2980     0.7320 ha         1 RY0       0.132000
     42 H241       -19.5880   -20.5020     1.8470 ha         1 RY0       0.133000
     43 H271       -16.8660   -23.6100     2.9850 ha         1 RY0       0.133000
     44 H281       -15.0220   -22.3960     1.8560 ha         1 RY0       0.132000
     45 H291       -17.7840   -18.8270    -3.5010 ha         1 RY0       0.146000
     46 H011       -21.2030   -14.7240    -7.8450 hn         1 RY0       0.375400
     47 H1         -19.2430   -15.4670    -5.1510 hn         1 RY0       0.468000
     48 H031       -19.8800   -14.1930    -6.0760 hn         1 RY0       0.468000
     49 H141       -15.5400   -20.8850    -1.4150 hn         1 RY0       0.167000
@<TRIPOS>BOND
     1     1     2 1   
     2     1    23 2   
     3     1    24 1   
     4     2     3 2   
     5     2    28 1   
     6     3     4 1   
     7     3    30 1   
     8     4     5 2   
     9     4     6 1   
    10     5    28 1   
    11     5    31 1   
    12     6     7 ar  
    13     6    22 ar  
    14     7     8 ar  
    15     7    32 1   
    16     8     9 ar  
    17     8    33 1   
    18     9    10 ar  
    19     9    34 1   
    20    10    22 ar  
    21    10    25 1   
    22    11    12 1   
    23    11    25 1   
    24    11    26 2   
    25    12    13 1   
    26    12    15 1   
    27    12    27 1   
    28    13    14 1   
    29    13    35 1   
    30    13    36 1   
    31    14    15 1   
    32    14    37 1   
    33    14    38 1   
    34    15    39 1   
    35    15    40 1   
    36    16    17 ar  
    37    16    21 ar  
    38    16    27 1   
    39    17    18 ar  
    40    17    41 1   
    41    18    19 ar  
    42    18    42 1   
    43    19    20 ar  
    44    19    29 1   
    45    20    21 ar  
    46    20    43 1   
    47    21    44 1   
    48    22    45 1   
    49    23    46 1   
    50    24    47 1   
    51    24    48 1   
    52    25    49 1   
@<TRIPOS>SUBSTRUCTURE
     1 RY0         1 TEMP              0 ****  ****    0 ROOT
