@<TRIPOS>MOLECULE
RY0
   49    52     1     0     0
SMALL
No Charge or Current Charge


@<TRIPOS>ATOM
      1 C02        -19.9630   -15.8910    -7.1580 ce         1 RY0       0.695800
      2 C04        -19.6900   -17.2980    -6.9410 cc         1 RY0      -0.286900
      3 C05        -19.0160   -17.9130    -5.9080 cd         1 RY0      -0.097000
      4 C06        -18.9080   -19.3370    -6.0170 cd         1 RY0      -0.066000
      5 C07        -19.5140   -19.7910    -7.1690 cc         1 RY0      -0.252000
      6 C09        -18.2400   -20.2250    -5.0280 ca         1 RY0       0.019000
      7 C10        -18.2100   -21.6250    -5.2230 ca         1 RY0      -0.125000
      8 C11        -17.5730   -22.4680    -4.2990 ca         1 RY0      -0.081000
      9 C12        -16.9600   -21.9280    -3.1610 ca         1 RY0      -0.160000
     10 C13        -16.9840   -20.5430    -2.9310 ca         1 RY0      -0.022000
     11 C15        -16.4020   -18.8580    -1.0710 c          1 RY0       0.594100
     12 C17        -15.3560   -18.9580     0.1550 cy         1 RY0       0.061000
     13 C18        -15.6780   -17.6240     0.9310 cy         1 RY0      -0.078900
     14 C19        -14.7350   -16.8440    -0.0590 cy         1 RY0      -0.083400
     15 C20        -14.1650   -18.2200    -0.5640 cy         1 RY0      -0.078900
     16 C22        -16.0630   -20.9300     1.4910 ca         1 RY0       0.123100
     17 C23        -17.3890   -20.4730     1.6630 ca         1 RY0      -0.152000
     18 C24        -18.3350   -21.2900     2.3120 ca         1 RY0      -0.067500
     19 C25        -17.9630   -22.5570     2.7890 ca         1 RY0       0.093000
     20 C27        -16.6450   -23.0130     2.6210 ca         1 RY0      -0.067500
     21 C28        -15.6990   -22.1980     1.9730 ca         1 RY0      -0.152000
     22 C29        -17.6150   -19.7000    -3.8720 ca         1 RY0      -0.129000
     23 N01        -20.2200   -15.4210    -8.3040 n2         1 RY0      -0.846100
     24 N03        -19.7980   -15.0290    -6.1430 nv         1 RY0      -1.077200
     25 N14        -16.3340   -20.0640    -1.7600 ns         1 RY0      -0.136000
     26 O16        -17.2000   -17.9900    -1.4240 o          1 RY0      -0.587100
     27 O21        -15.0890   -20.1850     0.8570 os         1 RY0      -0.350100
     28 S08        -20.1950   -18.4860    -8.1300 ss         1 RY0       0.318000
     29 Cl26       -19.1480   -23.5740     3.5990 cl         1 RY0      -0.208000
     30 H051       -18.6030   -17.3440    -5.0830 ha         1 RY0       0.139000
     31 H071       -19.6130   -20.7980    -7.5480 h4         1 RY0       0.150000
     32 H101       -18.6750   -22.0780    -6.0920 ha         1 RY0       0.117000
     33 H111       -17.5560   -23.5430    -4.4680 ha         1 RY0       0.115000
     34 H121       -16.4700   -22.5920    -2.4520 ha         1 RY0       0.113000
     35 H181       -16.7210   -17.2920     0.9700 hc         1 RY0       0.071200
     36 H182       -15.3040   -17.6330     1.9610 hc         1 RY0       0.071200
     37 H192       -14.0030   -16.1840     0.4190 hc         1 RY0       0.063700
     38 H191       -15.2600   -16.2600    -0.8240 hc         1 RY0       0.063700
     39 H201       -13.1890   -18.4640    -0.1310 hc         1 RY0       0.071200
     40 H202       -14.0720   -18.3310    -1.6520 hc         1 RY0       0.071200
     41 H231       -17.7060   -19.4980     1.3100 ha         1 RY0       0.132000
     42 H241       -19.3560   -20.9400     2.4460 ha         1 RY0       0.133000
     43 H271       -16.3580   -23.9940     2.9920 ha         1 RY0       0.133000
     44 H281       -14.6790   -22.5510     1.8420 ha         1 RY0       0.132000
     45 H291       -17.6040   -18.6300    -3.7150 ha         1 RY0       0.146000
     46 H011       -20.0540   -14.4100    -8.2660 hn         1 RY0       0.375400
     47 H1         -19.7710   -15.4660    -5.2300 hn         1 RY0       0.468000
     48 H031       -20.3460   -14.1790    -6.1930 hn         1 RY0       0.468000
     49 H141       -15.6960   -20.7320    -1.3460 hn         1 RY0       0.167000
@<TRIPOS>BOND
     1     1     2 1   
     2     1    23 2   
     3     1    24 1   
     4     2     3 2   
     5     2    28 1   
     6     3     4 1   
     7     3    30 1   
     8     4     5 2   
     9     4     6 1   
    10     5    28 1   
    11     5    31 1   
    12     6     7 ar  
    13     6    22 ar  
    14     7     8 ar  
    15     7    32 1   
    16     8     9 ar  
    17     8    33 1   
    18     9    10 ar  
    19     9    34 1   
    20    10    22 ar  
    21    10    25 1   
    22    11    12 1   
    23    11    25 1   
    24    11    26 2   
    25    12    13 1   
    26    12    15 1   
    27    12    27 1   
    28    13    14 1   
    29    13    35 1   
    30    13    36 1   
    31    14    15 1   
    32    14    37 1   
    33    14    38 1   
    34    15    39 1   
    35    15    40 1   
    36    16    17 ar  
    37    16    21 ar  
    38    16    27 1   
    39    17    18 ar  
    40    17    41 1   
    41    18    19 ar  
    42    18    42 1   
    43    19    20 ar  
    44    19    29 1   
    45    20    21 ar  
    46    20    43 1   
    47    21    44 1   
    48    22    45 1   
    49    23    46 1   
    50    24    47 1   
    51    24    48 1   
    52    25    49 1   
@<TRIPOS>SUBSTRUCTURE
     1 RY0         1 TEMP              0 ****  ****    0 ROOT
