@<TRIPOS>MOLECULE
RY3
   35    36     1     0     0
SMALL
abcg2


@<TRIPOS>ATOM
      1 C02        -34.2640    30.6420   -33.6120 c6         1 RY3       0.389300
      2 C03        -35.5790    29.9290   -33.3050 c6         1 RY3       0.159300
      3 C05        -36.3910    30.7340   -32.2950 c6         1 RY3       0.136300
      4 C07        -36.5360    32.1750   -32.7670 c6         1 RY3       0.103300
      5 C09        -35.1490    32.7780   -33.0070 c6         1 RY3       0.146300
      6 C11        -35.2030    34.1760   -33.5840 c3         1 RY3      -0.092100
      7 C12        -32.1510    30.7810   -32.4940 ca         1 RY3       0.197100
      8 C13        -31.4450    30.5390   -31.3110 ca         1 RY3      -0.183500
      9 C14        -30.0960    30.7980   -31.2350 ca         1 RY3      -0.008000
     10 C15        -29.4370    31.3090   -32.3480 ca         1 RY3      -0.223200
     11 C16        -30.1230    31.5550   -33.5280 ca         1 RY3      -0.008000
     12 C17        -31.4790    31.2970   -33.6050 ca         1 RY3      -0.183500
     13 N18        -28.0210    31.5920   -32.2730 no         1 RY3       0.701200
     14 O01        -33.4560    30.4770   -32.4590 os         1 RY3      -0.377100
     15 O04        -36.2470    29.8040   -34.5330 oh         1 RY3      -0.715000
     16 O06        -37.6320    30.0880   -32.1570 oh         1 RY3      -0.669000
     17 O08        -37.2340    32.8750   -31.7620 oh         1 RY3      -0.724000
     18 O10        -34.4310    31.9720   -33.9420 os         1 RY3      -0.454000
     19 O19        -27.4840    32.0860   -33.2390 o          1 RY3      -0.405500
     20 O20        -27.4390    31.3230   -31.2470 o          1 RY3      -0.405500
     21 H1         -33.7830    30.1680   -34.4740 h2         1 RY3       0.101700
     22 H2         -35.3460    28.9430   -32.8780 h1         1 RY3       0.071700
     23 H3         -35.8460    30.7430   -31.3390 h1         1 RY3       0.067700
     24 H4         -37.0930    32.1880   -33.7140 h1         1 RY3       0.061700
     25 H5         -34.6140    32.8080   -32.0490 h1         1 RY3       0.060700
     26 H6         -35.6920    34.8580   -32.8890 hc         1 RY3       0.049700
     27 H7         -34.1990    34.5600   -33.7640 hc         1 RY3       0.049700
     28 H8         -35.7540    34.1930   -34.5260 hc         1 RY3       0.049700
     29 H9         -31.9690    30.1410   -30.4530 ha         1 RY3       0.141500
     30 H10        -29.5680    30.6020   -30.3130 ha         1 RY3       0.151000
     31 H11        -29.6160    31.9530   -34.3950 ha         1 RY3       0.151000
     32 H12        -31.9860    31.5120   -34.5340 ha         1 RY3       0.141500
     33 H13        -37.1520    29.5240   -34.3510 ho         1 RY3       0.533000
     34 H14        -38.2180    30.6630   -31.6520 ho         1 RY3       0.470000
     35 H15        -37.6970    33.6190   -32.1580 ho         1 RY3       0.515000
@<TRIPOS>BOND
     1     1     2 1   
     2     1    14 1   
     3     1    18 1   
     4     1    21 1   
     5     2     3 1   
     6     2    15 1   
     7     2    22 1   
     8     3     4 1   
     9     3    16 1   
    10     3    23 1   
    11     4     5 1   
    12     4    17 1   
    13     4    24 1   
    14     5     6 1   
    15     5    18 1   
    16     5    25 1   
    17     6    26 1   
    18     6    27 1   
    19     6    28 1   
    20     7     8 ar  
    21     7    12 ar  
    22     7    14 1   
    23     8     9 ar  
    24     8    29 1   
    25     9    10 ar  
    26     9    30 1   
    27    10    11 ar  
    28    10    13 1   
    29    11    12 ar  
    30    11    31 1   
    31    12    32 1   
    32    13    19 1   
    33    13    20 1   
    34    15    33 1   
    35    16    34 1   
    36    17    35 1   
@<TRIPOS>SUBSTRUCTURE
     1 RY3         1 TEMP              0 ****  ****    0 ROOT
