@<TRIPOS>MOLECULE
RY3
   35    36     1     0     0
SMALL
No Charge or Current Charge


@<TRIPOS>ATOM
      1 C02        -34.2940    30.4910   -33.6740 c6         1 RY3       0.389300
      2 C03        -35.7000    29.8300   -33.4530 c6         1 RY3       0.159300
      3 C05        -36.4820    30.6340   -32.3700 c6         1 RY3       0.136300
      4 C07        -36.5450    32.1510   -32.7290 c6         1 RY3       0.103300
      5 C09        -35.0980    32.6880   -32.9750 c6         1 RY3       0.146300
      6 C11        -35.0660    34.1550   -33.4740 c3         1 RY3      -0.092100
      7 C12        -32.1410    30.7140   -32.4920 ca         1 RY3       0.197100
      8 C13        -31.4520    30.6270   -31.2740 ca         1 RY3      -0.183500
      9 C14        -30.0940    30.9780   -31.1890 ca         1 RY3      -0.008000
     10 C15        -29.4030    31.4240   -32.3390 ca         1 RY3      -0.223200
     11 C16        -30.0960    31.5080   -33.5680 ca         1 RY3      -0.008000
     12 C17        -31.4550    31.1540   -33.6440 ca         1 RY3      -0.183500
     13 N18        -27.9560    31.8000   -32.2560 no         1 RY3       0.701200
     14 O01        -33.4720    30.3480   -32.4950 os         1 RY3      -0.377100
     15 O04        -36.4960    29.7820   -34.6610 oh         1 RY3      -0.715000
     16 O06        -37.8180    30.1150   -32.2260 oh         1 RY3      -0.669000
     17 O08        -37.2240    32.8720   -31.6760 oh         1 RY3      -0.724000
     18 O10        -34.4400    31.9000   -33.9950 os         1 RY3      -0.454000
     19 O19        -27.3910    32.1840   -33.2880 o          1 RY3      -0.405500
     20 O20        -27.3900    31.7110   -31.1580 o          1 RY3      -0.405500
     21 H1         -33.8100    29.9720   -34.5150 h2         1 RY3       0.101700
     22 H2         -35.5360    28.8100   -33.0730 h1         1 RY3       0.071700
     23 H3         -35.9400    30.5340   -31.4170 h1         1 RY3       0.067700
     24 H4         -37.1050    32.2580   -33.6710 h1         1 RY3       0.061700
     25 H5         -34.5170    32.6290   -32.0430 h1         1 RY3       0.060700
     26 H6         -35.4610    34.8430   -32.7180 hc         1 RY3       0.049700
     27 H7         -34.0390    34.4690   -33.6950 hc         1 RY3       0.049700
     28 H8         -35.6590    34.2790   -34.3880 hc         1 RY3       0.049700
     29 H9         -31.9780    30.2850   -30.3870 ha         1 RY3       0.141500
     30 H10        -29.5890    30.9010   -30.2270 ha         1 RY3       0.151000
     31 H11        -29.5910    31.8470   -34.4720 ha         1 RY3       0.151000
     32 H12        -31.9540    31.2320   -34.6050 ha         1 RY3       0.141500
     33 H13        -37.4250    29.7010   -34.3300 ho         1 RY3       0.533000
     34 H14        -38.2950    30.7990   -31.6980 ho         1 RY3       0.470000
     35 H15        -37.4160    33.7780   -32.0140 ho         1 RY3       0.515000
@<TRIPOS>BOND
     1     1     2 1   
     2     1    14 1   
     3     1    18 1   
     4     1    21 1   
     5     2     3 1   
     6     2    15 1   
     7     2    22 1   
     8     3     4 1   
     9     3    16 1   
    10     3    23 1   
    11     4     5 1   
    12     4    17 1   
    13     4    24 1   
    14     5     6 1   
    15     5    18 1   
    16     5    25 1   
    17     6    26 1   
    18     6    27 1   
    19     6    28 1   
    20     7     8 ar  
    21     7    12 ar  
    22     7    14 1   
    23     8     9 ar  
    24     8    29 1   
    25     9    10 ar  
    26     9    30 1   
    27    10    11 ar  
    28    10    13 1   
    29    11    12 ar  
    30    11    31 1   
    31    12    32 1   
    32    13    19 1   
    33    13    20 1   
    34    15    33 1   
    35    16    34 1   
    36    17    35 1   
@<TRIPOS>SUBSTRUCTURE
     1 RY3         1 TEMP              0 ****  ****    0 ROOT
