@<TRIPOS>MOLECULE
RY4
   25    25     1     0     0
SMALL
abcg2


@<TRIPOS>ATOM
      1 N1           7.6790    17.8840     5.2100 nu         1 RY4      -0.902100
      2 C4           6.7890    19.6580     8.3350 ca         1 RY4      -0.080000
      3 C5           5.4080    19.7640     8.2270 ca         1 RY4      -0.088300
      4 C6           4.7930    19.2250     7.0980 ca         1 RY4      -0.080000
      5 C7           5.5340    18.5990     6.1090 ca         1 RY4      -0.116500
      6 C8           4.5970    20.4230     9.3140 c3         1 RY4       0.197100
      7 C1           7.1960    16.1240     3.2340 c3         1 RY4      -0.345100
      8 C2           6.9150    18.4860     6.2390 ca         1 RY4       0.264000
      9 C3           7.5400    19.0130     7.3610 ca         1 RY4      -0.116500
     10 N2           3.5640    21.2860     8.7660 n8         1 RY4      -1.000200
     11 O1           8.9350    15.6710     5.1410 o          1 RY4      -0.534500
     12 O2           6.4950    15.7080     5.7340 o          1 RY4      -0.534500
     13 S1           7.6050    16.2320     4.9540 s6         1 RY4       1.182100
     14 H1           8.6370    18.2140     5.1560 hn         1 RY4       0.488000
     15 H2           7.2950    20.0820     9.1940 ha         1 RY4       0.123500
     16 H3           3.7220    19.3160     6.9770 ha         1 RY4       0.123500
     17 H4           5.0370    18.2180     5.2270 ha         1 RY4       0.118000
     18 H5           4.0970    19.6480     9.9020 h1         1 RY4       0.036700
     19 H6           5.2850    20.9280    10.0050 h1         1 RY4       0.036700
     20 H7           7.1300    15.0690     2.9730 h1         1 RY4       0.104367
     21 H8           6.2410    16.6140     3.0610 h1         1 RY4       0.104367
     22 H9           7.9770    16.6020     2.6480 h1         1 RY4       0.104367
     23 H10          8.6150    18.9350     7.4710 ha         1 RY4       0.118000
     24 H11          2.9820    21.6290     9.5200 hn         1 RY4       0.397000
     25 H12          3.9880    22.1030     8.3450 hn         1 RY4       0.397000
@<TRIPOS>BOND
     1     1     8 1   
     2     1    13 1   
     3     1    14 1   
     4     2     3 ar  
     5     2     9 ar  
     6     2    15 1   
     7     3     4 ar  
     8     3     6 1   
     9     4     5 ar  
    10     4    16 1   
    11     5     8 ar  
    12     5    17 1   
    13     6    10 1   
    14     6    18 1   
    15     6    19 1   
    16     7    13 1   
    17     7    20 1   
    18     7    21 1   
    19     7    22 1   
    20     8     9 ar  
    21     9    23 1   
    22    10    24 1   
    23    10    25 1   
    24    11    13 2   
    25    12    13 2   
@<TRIPOS>SUBSTRUCTURE
     1 RY4         1 TEMP              0 ****  ****    0 ROOT
