@<TRIPOS>MOLECULE
RY4
   25    25     1     0     0
SMALL
No Charge or Current Charge


@<TRIPOS>ATOM
      1 N1           7.9690    17.1380     5.9630 nu         1 RY4      -0.902100
      2 C4           6.7270    19.8680     8.1330 ca         1 RY4      -0.080000
      3 C5           5.3440    19.6080     8.1770 ca         1 RY4      -0.088300
      4 C6           4.8310    18.5020     7.4740 ca         1 RY4      -0.080000
      5 C7           5.6880    17.6690     6.7330 ca         1 RY4      -0.116500
      6 C8           4.4150    20.5050     8.9850 c3         1 RY4       0.197100
      7 C1           6.8680    17.1040     3.4590 c3         1 RY4      -0.345100
      8 C2           7.0730    17.9310     6.6810 ca         1 RY4       0.264000
      9 C3           7.5810    19.0330     7.3910 ca         1 RY4      -0.116500
     10 N2           3.7840    21.5320     8.1350 n8         1 RY4      -1.000200
     11 O1           9.0340    15.7730     4.1910 o          1 RY4      -0.534500
     12 O2           6.7960    15.0660     5.1680 o          1 RY4      -0.534500
     13 S1           7.6980    16.1130     4.6840 s6         1 RY4       1.182100
     14 H1           8.9240    17.4560     5.8710 hn         1 RY4       0.488000
     15 H2           7.1410    20.7170     8.6730 ha         1 RY4       0.123500
     16 H3           3.7650    18.2880     7.5020 ha         1 RY4       0.123500
     17 H4           5.2610    16.8200     6.2100 ha         1 RY4       0.118000
     18 H5           3.6280    19.8980     9.4530 h1         1 RY4       0.036700
     19 H6           4.9810    21.0040     9.7840 h1         1 RY4       0.036700
     20 H7           6.7010    16.4690     2.5830 h1         1 RY4       0.104367
     21 H8           5.9210    17.4440     3.8870 h1         1 RY4       0.104367
     22 H9           7.5220    17.9470     3.2180 h1         1 RY4       0.104367
     23 H10          8.6460    19.2480     7.3690 ha         1 RY4       0.118000
     24 H11          3.2380    22.1660     8.7310 hn         1 RY4       0.397000
     25 H12          4.5200    22.1340     7.7480 hn         1 RY4       0.397000
@<TRIPOS>BOND
     1     1     8 1   
     2     1    13 1   
     3     1    14 1   
     4     2     3 ar  
     5     2     9 ar  
     6     2    15 1   
     7     3     4 ar  
     8     3     6 1   
     9     4     5 ar  
    10     4    16 1   
    11     5     8 ar  
    12     5    17 1   
    13     6    10 1   
    14     6    18 1   
    15     6    19 1   
    16     7    13 1   
    17     7    20 1   
    18     7    21 1   
    19     7    22 1   
    20     8     9 ar  
    21     9    23 1   
    22    10    24 1   
    23    10    25 1   
    24    11    13 2   
    25    12    13 2   
@<TRIPOS>SUBSTRUCTURE
     1 RY4         1 TEMP              0 ****  ****    0 ROOT
