@<TRIPOS>MOLECULE
RY5
   34    37     1     0     0
SMALL
No Charge or Current Charge


@<TRIPOS>ATOM
      1 C1          12.5400    -0.6920    23.5900 ca         1 RY5       0.134000
      2 C10          6.8380    -0.7140    18.8210 c3         1 RY5       0.081700
      3 C11          5.8620     0.4060    18.5620 cc         1 RY5       0.245300
      4 C12          4.6010     0.4760    19.1770 cc         1 RY5      -0.236000
      5 C13          4.0350     1.6110    18.7010 cd         1 RY5       0.166900
      6 C14          8.4050     0.1230    20.5990 c          1 RY5       0.566000
      7 C15         11.8090     0.4980    23.7670 ca         1 RY5      -0.093000
      8 C2          11.9670    -1.7860    22.9090 ca         1 RY5      -0.108000
      9 C3          10.6570    -1.6940    22.4000 ca         1 RY5      -0.066000
     10 C4           9.9430    -0.4990    22.5900 ca         1 RY5      -0.114300
     11 C5          10.5030     0.5720    23.2580 ca         1 RY5      -0.052300
     12 C6           9.5680     1.7560    23.3340 c5         1 RY5      -0.032100
     13 C7           8.1830     1.0670    23.0150 c5         1 RY5      -0.071400
     14 C8           8.5490    -0.1850    22.1260 c5         1 RY5       0.080700
     15 C9           6.8090    -1.4540    21.2170 c          1 RY5       0.621000
     16 N1           7.4980    -1.1880    22.3600 ns         1 RY5      -0.511900
     17 N2           7.3540    -0.6920    20.2110 n          1 RY5      -0.393400
     18 N3           6.1010     1.4190    17.7450 nd         1 RY5      -0.344300
     19 O1           5.8780    -2.2330    21.1180 o          1 RY5      -0.540000
     20 O2           4.9020     2.2190    17.8300 os         1 RY5      -0.064700
     21 O3           9.0430     0.8740    19.8730 o          1 RY5      -0.477000
     22 Cl1         14.1780    -0.8150    24.2190 cl         1 RY5      -0.197000
     23 H1           6.3410    -1.6720    18.6230 h1         1 RY5       0.089200
     24 H2           7.6790    -0.6320    18.1200 h1         1 RY5       0.089200
     25 H3           4.1830    -0.2340    19.8820 ha         1 RY5       0.157000
     26 H4           3.0770     2.0790    18.8860 h4         1 RY5       0.058100
     27 H5          12.2510     1.3430    24.2890 ha         1 RY5       0.135000
     28 H6          12.5390    -2.7010    22.7750 ha         1 RY5       0.134000
     29 H7          10.2070    -2.5320    21.8720 ha         1 RY5       0.126000
     30 H8           9.5710     2.2440    24.3150 hc         1 RY5       0.070200
     31 H9           9.8230     2.5140    22.5850 hc         1 RY5       0.070200
     32 H10          7.4760     1.7470    22.5260 hc         1 RY5       0.060700
     33 H11          7.7140     0.7520    23.9550 hc         1 RY5       0.060700
     34 H12          7.2620    -1.6600    23.2250 hn         1 RY5       0.353500
@<TRIPOS>BOND
     1     1     7 ar  
     2     1     8 ar  
     3     1    22 1   
     4     2     3 1   
     5     2    17 1   
     6     2    23 1   
     7     2    24 1   
     8     3     4 1   
     9     3    18 2   
    10     4     5 2   
    11     4    25 1   
    12     5    20 1   
    13     5    26 1   
    14     6    14 1   
    15     6    17 1   
    16     6    21 2   
    17     7    11 ar  
    18     7    27 1   
    19     8     9 ar  
    20     8    28 1   
    21     9    10 ar  
    22     9    29 1   
    23    10    11 ar  
    24    10    14 1   
    25    11    12 1   
    26    12    13 1   
    27    12    30 1   
    28    12    31 1   
    29    13    14 1   
    30    13    32 1   
    31    13    33 1   
    32    14    16 1   
    33    15    16 1   
    34    15    17 1   
    35    15    19 2   
    36    16    34 1   
    37    18    20 1   
@<TRIPOS>SUBSTRUCTURE
     1 RY5         1 TEMP              0 ****  ****    0 ROOT
