@<TRIPOS>MOLECULE
RY5
   34    37     1     0     0
SMALL
bcc


@<TRIPOS>ATOM
      1 C1          12.4630    -0.5450    23.3100 ca         1 RY5       0.042400
      2 C10          6.8780    -0.8200    18.9120 c3         1 RY5       0.081700
      3 C11          6.0020     0.3510    18.6060 cc         1 RY5       0.310600
      4 C12          4.8960     0.8340    19.3520 cc         1 RY5      -0.384600
      5 C13          4.4600     1.8740    18.6100 cd         1 RY5       0.276600
      6 C14          8.1980     0.0900    20.7990 c          1 RY5       0.708500
      7 C15         11.7180     0.5940    23.5840 ca         1 RY5      -0.111000
      8 C2          11.9100    -1.6580    22.6880 ca         1 RY5      -0.126000
      9 C3          10.5710    -1.6360    22.3230 ca         1 RY5      -0.084000
     10 C4           9.8230    -0.5050    22.5950 ca         1 RY5      -0.114300
     11 C5          10.3830     0.6010    23.2160 ca         1 RY5      -0.052300
     12 C6           9.3640     1.6910    23.3940 c5         1 RY5      -0.032100
     13 C7           8.0330     0.9580    23.1800 c5         1 RY5      -0.071400
     14 C8           8.3700    -0.2490    22.2770 c5         1 RY5       0.080700
     15 C9           6.8720    -1.7190    21.2600 c          1 RY5       0.830500
     16 N1           7.4970    -1.3810    22.4040 ns         1 RY5      -0.578900
     17 N2           7.3170    -0.8120    20.2860 n          1 RY5      -0.527400
     18 N3           6.1890     1.0550    17.5290 nd         1 RY5      -0.344300
     19 O1           6.0830    -2.6120    21.0610 o          1 RY5      -0.615500
     20 O2           5.2210     2.0080    17.5240 os         1 RY5      -0.109100
     21 O3           8.7350     0.9860    20.1970 o          1 RY5      -0.552500
     22 CL1         14.1350    -0.5860    23.7710 cl         1 RY5      -0.105400
     23 H1           6.3290    -1.7470    18.7470 h1         1 RY5       0.089200
     24 H2           7.7420    -0.8270    18.2460 h1         1 RY5       0.089200
     25 H3           4.4980     0.4620    20.2810 ha         1 RY5       0.175000
     26 H4           3.6510     2.5780    18.7290 h4         1 RY5       0.058100
     27 H5          12.1690     1.4460    24.0770 ha         1 RY5       0.153000
     28 H6          12.5150    -2.5330    22.4950 ha         1 RY5       0.152000
     29 H7          10.1290    -2.5000    21.8420 ha         1 RY5       0.144000
     30 H8           9.4210     2.1670    24.3730 hc         1 RY5       0.070200
     31 H9           9.5110     2.4730    22.6470 hc         1 RY5       0.070200
     32 H10          7.2480     1.5880    22.7620 hc         1 RY5       0.060700
     33 H11          7.6690     0.5650    24.1310 hc         1 RY5       0.060700
     34 H12          7.3460    -1.8760    23.2690 hn         1 RY5       0.353500
@<TRIPOS>BOND
     1     1     7 ar  
     2     1     8 ar  
     3     1    22 1   
     4     2     3 1   
     5     2    17 1   
     6     2    23 1   
     7     2    24 1   
     8     3     4 1   
     9     3    18 2   
    10     4     5 2   
    11     4    25 1   
    12     5    20 1   
    13     5    26 1   
    14     6    14 1   
    15     6    17 1   
    16     6    21 2   
    17     7    11 ar  
    18     7    27 1   
    19     8     9 ar  
    20     8    28 1   
    21     9    10 ar  
    22     9    29 1   
    23    10    11 ar  
    24    10    14 1   
    25    11    12 1   
    26    12    13 1   
    27    12    30 1   
    28    12    31 1   
    29    13    14 1   
    30    13    32 1   
    31    13    33 1   
    32    14    16 1   
    33    15    16 1   
    34    15    17 1   
    35    15    19 2   
    36    16    34 1   
    37    18    20 1   
@<TRIPOS>SUBSTRUCTURE
     1 RY5         1 TEMP              0 ****  ****    0 ROOT
