@<TRIPOS>MOLECULE
RY6
   42    44     1     0     0
SMALL
No Charge or Current Charge


@<TRIPOS>ATOM
      1 C16        -44.2370   -31.4230     0.3140 ca         1 RY6      -0.152300
      2 C17        -43.5340   -32.5550    -0.1360 ca         1 RY6       0.133100
      3 C15        -43.7050   -30.0180     0.4750 c5         1 RY6      -0.015100
      4 C12        -44.3920   -29.3250     2.8420 c          1 RY6       0.718000
      5 C11        -44.8390   -29.3440     1.3510 c5         1 RY6      -0.198700
      6 C10        -46.1570   -30.1970     1.0910 c5         1 RY6       0.164000
      7 C20        -45.5650   -33.8850     0.1310 ca         1 RY6      -0.097000
      8 C19        -44.2040   -33.7890    -0.2240 ca         1 RY6      -0.157000
      9 C02        -51.4950   -28.5560     8.3140 c          1 RY6       0.649100
     10 C04        -49.8820   -29.2690     6.4480 ca         1 RY6      -0.007000
     11 C05        -48.9120   -30.2400     6.1500 ca         1 RY6      -0.172000
     12 C06        -48.2440   -30.2440     4.9140 ca         1 RY6      -0.042000
     13 C07        -48.5360   -29.2630     3.9360 ca         1 RY6      -0.158600
     14 C21        -46.2570   -32.7420     0.5750 ca         1 RY6      -0.120000
     15 C22        -45.5720   -31.5180     0.6640 ca         1 RY6      -0.036300
     16 C24        -49.5110   -28.2870     4.2400 ca         1 RY6      -0.042000
     17 C25        -50.1760   -28.2890     5.4790 ca         1 RY6      -0.172000
     18 N01        -51.8180   -28.9600     9.5590 nt         1 RY6      -0.611000
     19 N09        -46.9240   -30.2240     2.3400 ns         1 RY6      -0.473900
     20 O13        -44.1320   -30.3700     3.4220 o          1 RY6      -0.728000
     21 O14        -44.2870   -28.2420     3.3990 o          1 RY6      -0.728000
     22 O18        -42.2210   -32.4690    -0.4910 oh         1 RY6      -0.559100
     23 O26        -52.0500   -27.5910     7.8160 o          1 RY6      -0.627100
     24 H151       -42.7220   -29.9760     0.9600 hc         1 RY6       0.043200
     25 H152       -43.6090   -29.5210    -0.4970 hc         1 RY6       0.043200
     26 H111       -44.9980   -28.3040     1.0440 hc         1 RY6       0.053700
     27 H101       -46.7320   -29.7850     0.2490 h1         1 RY6       0.061700
     28 H201       -46.0810   -34.8390     0.0580 ha         1 RY6       0.097000
     29 H191       -43.6710   -34.6710    -0.5710 ha         1 RY6       0.108000
     30 H051       -48.6690   -31.0050     6.8850 ha         1 RY6       0.124500
     31 H061       -47.5010   -31.0180     4.7390 ha         1 RY6       0.140000
     32 H211       -47.3100   -32.8060     0.8420 ha         1 RY6       0.118000
     33 H241       -49.7600   -27.5170     3.5120 ha         1 RY6       0.140000
     34 H251       -50.9160   -27.5170     5.6630 ha         1 RY6       0.124500
     35 H012       -52.5250   -28.4530    10.0690 hn         1 RY6       0.306000
     36 H011       -51.3600   -29.7570     9.9720 hn         1 RY6       0.306000
     37 H031       -50.1790   -30.0910     8.3000 hn         1 RY6       0.142000
     38 H091       -46.7490   -30.8940     3.0740 hn         1 RY6       0.374500
     39 H181       -41.9360   -31.5390    -0.3720 ho         1 RY6       0.463000
     40 C08        -47.8450   -29.2250     2.5860 c          1 RY6       0.605700
     41 O23        -48.0970   -28.3550     1.7610 o          1 RY6      -0.661100
     42 N03        -50.5130   -29.3330     7.7200 ns         1 RY6      -0.160000
@<TRIPOS>BOND
     1     1     2 ar  
     2     1     3 1   
     3     1    15 ar  
     4     2     8 ar  
     5     2    22 1   
     6     3     5 1   
     7     3    24 1   
     8     3    25 1   
     9     4     5 1   
    10     4    20 1   
    11     4    21 1   
    12     5     6 1   
    13     5    26 1   
    14     6    15 1   
    15     6    19 1   
    16     6    27 1   
    17     7     8 ar  
    18     7    14 ar  
    19     7    28 1   
    20     8    29 1   
    21     9    18 1   
    22     9    23 2   
    23     9    42 1   
    24    10    11 ar  
    25    10    17 ar  
    26    10    42 1   
    27    11    12 ar  
    28    11    30 1   
    29    12    13 ar  
    30    12    31 1   
    31    13    16 ar  
    32    13    40 1   
    33    14    15 ar  
    34    14    32 1   
    35    16    17 ar  
    36    16    33 1   
    37    17    34 1   
    38    18    35 1   
    39    18    36 1   
    40    19    38 1   
    41    19    40 1   
    42    22    39 1   
    43    37    42 1   
    44    40    41 2   
@<TRIPOS>SUBSTRUCTURE
     1 RY6         1 TEMP              0 ****  ****    0 ROOT
