@<TRIPOS>MOLECULE
RY6
   42    44     1     0     0
SMALL
abcg2


@<TRIPOS>ATOM
      1 C16        -44.3370   -31.3970     0.2840 ca         1 RY6      -0.152300
      2 C17        -44.0050   -32.5830    -0.3620 ca         1 RY6       0.133100
      3 C15        -43.5030   -30.1590     0.4980 c5         1 RY6      -0.015100
      4 C12        -43.6130   -29.7600     2.9990 c          1 RY6       0.718000
      5 C11        -44.2600   -29.4130     1.6320 c5         1 RY6      -0.198700
      6 C10        -45.7310   -29.8600     1.4350 c5         1 RY6       0.164000
      7 C20        -46.2080   -33.4450     0.1330 ca         1 RY6      -0.097000
      8 C19        -44.9470   -33.6120    -0.4320 ca         1 RY6      -0.157000
      9 C02        -51.8040   -29.0430     8.0040 c          1 RY6       0.649100
     10 C04        -49.8710   -29.2060     6.4240 ca         1 RY6      -0.007000
     11 C05        -48.4700   -29.2300     6.3850 ca         1 RY6      -0.172000
     12 C06        -47.7950   -29.2940     5.1800 ca         1 RY6      -0.042000
     13 C07        -48.4940   -29.3290     3.9690 ca         1 RY6      -0.158600
     14 C21        -46.5540   -32.2540     0.7740 ca         1 RY6      -0.120000
     15 C22        -45.6050   -31.2460     0.8370 ca         1 RY6      -0.036300
     16 C24        -49.8880   -29.2940     4.0160 ca         1 RY6      -0.042000
     17 C25        -50.5790   -29.2410     5.2160 ca         1 RY6      -0.172000
     18 N01        -52.0480   -29.0010     9.3470 nt         1 RY6      -0.611000
     19 N09        -46.5390   -29.7750     2.6280 ns         1 RY6      -0.473900
     20 O13        -44.2220   -30.5350     3.7880 o          1 RY6      -0.728000
     21 O14        -42.4940   -29.2370     3.2080 o          1 RY6      -0.728000
     22 O18        -42.7800   -32.7990    -0.9320 oh         1 RY6      -0.559100
     23 O26        -52.7020   -28.9480     7.1710 o          1 RY6      -0.627100
     24 H151       -42.4680   -30.3680     0.7770 hc         1 RY6       0.043200
     25 H152       -43.4740   -29.5510    -0.4120 hc         1 RY6       0.043200
     26 H111       -44.1680   -28.3340     1.5080 hc         1 RY6       0.053700
     27 H101       -46.1970   -29.2090     0.6910 h1         1 RY6       0.061700
     28 H201       -46.9240   -34.2550     0.0720 ha         1 RY6       0.097000
     29 H191       -44.6790   -34.5370    -0.9270 ha         1 RY6       0.108000
     30 H051       -47.9110   -29.1920     7.3130 ha         1 RY6       0.124500
     31 H061       -46.7140   -29.2940     5.1970 ha         1 RY6       0.140000
     32 H211       -47.5350   -32.1260     1.2150 ha         1 RY6       0.118000
     33 H241       -50.4390   -29.3160     3.0860 ha         1 RY6       0.140000
     34 H251       -51.6560   -29.2250     5.2260 ha         1 RY6       0.124500
     35 H012       -53.0130   -29.0890     9.6210 hn         1 RY6       0.306000
     36 H011       -51.3640   -29.3260    10.0120 hn         1 RY6       0.306000
     37 H031       -49.8200   -29.1630     8.4580 hn         1 RY6       0.142000
     38 H091       -46.0610   -30.1110     3.4570 hn         1 RY6       0.374500
     39 H181       -42.2190   -32.0200    -0.8130 ho         1 RY6       0.463000
     40 C08        -47.8250   -29.3850     2.6340 c          1 RY6       0.605700
     41 O23        -48.4390   -29.0840     1.6000 o          1 RY6      -0.661100
     42 N03        -50.4670   -29.1570     7.6840 ns         1 RY6      -0.160000
@<TRIPOS>BOND
     1     1     2 ar  
     2     1     3 1   
     3     1    15 ar  
     4     2     8 ar  
     5     2    22 1   
     6     3     5 1   
     7     3    24 1   
     8     3    25 1   
     9     4     5 1   
    10     4    20 1   
    11     4    21 1   
    12     5     6 1   
    13     5    26 1   
    14     6    15 1   
    15     6    19 1   
    16     6    27 1   
    17     7     8 ar  
    18     7    14 ar  
    19     7    28 1   
    20     8    29 1   
    21     9    18 1   
    22     9    23 2   
    23     9    42 1   
    24    10    11 ar  
    25    10    17 ar  
    26    10    42 1   
    27    11    12 ar  
    28    11    30 1   
    29    12    13 ar  
    30    12    31 1   
    31    13    16 ar  
    32    13    40 1   
    33    14    15 ar  
    34    14    32 1   
    35    16    17 ar  
    36    16    33 1   
    37    17    34 1   
    38    18    35 1   
    39    18    36 1   
    40    19    38 1   
    41    19    40 1   
    42    22    39 1   
    43    37    42 1   
    44    40    41 2   
@<TRIPOS>SUBSTRUCTURE
     1 RY6         1 TEMP              0 ****  ****    0 ROOT
