@<TRIPOS>MOLECULE
RY7
   47    48     1     0     0
SMALL
abcg2


@<TRIPOS>ATOM
      1 C1A         33.1390    20.6900     8.1710 c6         1 RY7       0.190500
      2 C2A         34.3580    20.3660     9.0400 c6         1 RY7       0.182300
      3 C3A         33.9520    19.5020    10.2210 c6         1 RY7       0.095300
      4 C4A         32.9330    20.2290    11.0960 c6         1 RY7       0.158300
      5 C5A         31.7050    20.6420    10.2840 c6         1 RY7      -0.053700
      6 C6A         30.6780    21.3950    11.1180 c3         1 RY7       0.167600
      7 C7A         32.1260    21.4430     9.0430 c6         1 RY7      -0.102400
      8 O2A         35.3640    19.7200     8.2580 oh         1 RY7      -0.733000
      9 O3A         35.1370    19.1960    10.9740 oh         1 RY7      -0.680000
     10 O4A         32.5090    19.3850    12.1680 oh         1 RY7      -0.729000
     11 O6A         31.2510    22.6170    11.5950 oh         1 RY7      -0.673000
     12 C1          31.8630    18.0090     3.6600 c6         1 RY7       0.384300
     13 C2          33.2360    18.6170     3.9220 c6         1 RY7       0.160300
     14 C3          33.4920    18.7180     5.4130 c6         1 RY7       0.145300
     15 C4          32.3690    19.4960     6.1080 c6         1 RY7       0.141500
     16 C5          31.0080    18.8890     5.7400 c6         1 RY7       0.157300
     17 C6          29.8300    19.7200     6.2110 c3         1 RY7      -0.092100
     18 N4          32.5790    19.4870     7.5530 n7         1 RY7      -0.914400
     19 O2          34.2360    17.8520     3.2590 oh         1 RY7      -0.710000
     20 O3          34.7590    19.3480     5.5730 oh         1 RY7      -0.759000
     21 O5          30.8760    18.7870     4.3090 os         1 RY7      -0.491000
     22 H1A         33.4750    21.3520     7.3710 h1         1 RY7       0.073700
     23 H2A         34.7660    21.3100     9.4220 h1         1 RY7       0.053700
     24 H3A         33.5100    18.5740     9.8490 h1         1 RY7       0.066700
     25 H4A         33.4130    21.1250    11.5050 h1         1 RY7       0.064700
     26 H5A         31.2040    19.7200     9.9660 hc         1 RY7       0.055700
     27 H6A1        29.8020    21.6050    10.4940 h1         1 RY7       0.032200
     28 H6A2        30.3590    20.7740    11.9590 h1         1 RY7       0.032200
     29 H7A1        32.5650    22.3910     9.3600 hc         1 RY7       0.061700
     30 H7A2        31.2430    21.6800     8.4470 hc         1 RY7       0.061700
     31 HOA2        35.9630    19.2690     8.8700 ho         1 RY7       0.525000
     32 HOA3        35.1010    18.2760    11.2560 ho         1 RY7       0.451000
     33 HOA4        33.2840    19.1910    12.7110 ho         1 RY7       0.509000
     34 HOA6        30.5980    23.0580    12.1500 ho         1 RY7       0.444000
     35 H1          31.6150    18.0700     2.5990 h2         1 RY7       0.076700
     36 H2          33.2110    19.6330     3.5070 h1         1 RY7       0.051700
     37 H3          33.5230    17.7100     5.8410 h1         1 RY7       0.063700
     38 H4          32.3860    20.5250     5.7250 h1         1 RY7       0.052700
     39 H5          30.9460    17.8830     6.1690 h1         1 RY7       0.054700
     40 H62         29.8110    19.7960     7.2980 hc         1 RY7       0.044700
     41 H63         29.8860    20.7280     5.7950 hc         1 RY7       0.044700
     42 H61         28.8960    19.2570     5.8890 hc         1 RY7       0.044700
     43 HN41        31.7510    19.1790     8.0400 hn         1 RY7       0.428000
     44 HO2         35.0870    18.1790     3.5790 ho         1 RY7       0.525000
     45 HO3         34.9860    19.3550     6.5240 ho         1 RY7       0.552000
     46 O1          31.8560    16.6690     4.0920 oh         1 RY7      -0.722000
     47 HO1         31.0500    16.2500     3.7640 ho         1 RY7       0.509000
@<TRIPOS>BOND
     1     1     2 1   
     2     1     7 1   
     3     1    18 1   
     4     1    22 1   
     5     2     3 1   
     6     2     8 1   
     7     2    23 1   
     8     3     4 1   
     9     3     9 1   
    10     3    24 1   
    11     4     5 1   
    12     4    10 1   
    13     4    25 1   
    14     5     6 1   
    15     5     7 1   
    16     5    26 1   
    17     6    11 1   
    18     6    27 1   
    19     6    28 1   
    20     7    29 1   
    21     7    30 1   
    22     8    31 1   
    23     9    32 1   
    24    10    33 1   
    25    11    34 1   
    26    12    13 1   
    27    12    21 1   
    28    12    35 1   
    29    12    46 1   
    30    13    14 1   
    31    13    19 1   
    32    13    36 1   
    33    14    15 1   
    34    14    20 1   
    35    14    37 1   
    36    15    16 1   
    37    15    18 1   
    38    15    38 1   
    39    16    17 1   
    40    16    21 1   
    41    16    39 1   
    42    17    40 1   
    43    17    41 1   
    44    17    42 1   
    45    18    43 1   
    46    19    44 1   
    47    20    45 1   
    48    46    47 1   
@<TRIPOS>SUBSTRUCTURE
     1 RY7         1 TEMP              0 ****  ****    0 ROOT
