@<TRIPOS>MOLECULE
RY7
   47    48     1     0     0
SMALL
No Charge or Current Charge


@<TRIPOS>ATOM
      1 C1A         33.2130    20.5270     8.1510 c6         1 RY7       0.190500
      2 C2A         34.4680    20.1130     8.9930 c6         1 RY7       0.182300
      3 C3A         34.0450    19.3530    10.2820 c6         1 RY7       0.095300
      4 C4A         33.1100    20.2420    11.1580 c6         1 RY7       0.158300
      5 C5A         31.8380    20.6600    10.3500 c6         1 RY7      -0.053700
      6 C6A         30.8480    21.5350    11.1800 c3         1 RY7       0.167600
      7 C7A         32.2420    21.3710     9.0180 c6         1 RY7      -0.102400
      8 O2A         35.3750    19.2860     8.2400 oh         1 RY7      -0.733000
      9 O3A         35.2070    18.9540    11.0360 oh         1 RY7      -0.680000
     10 O4A         32.7560    19.5230    12.3550 oh         1 RY7      -0.729000
     11 O6A         31.4660    22.7220    11.6940 oh         1 RY7      -0.673000
     12 C1          31.8600    18.1790     3.4250 c6         1 RY7       0.384300
     13 C2          33.2230    18.8790     3.7830 c6         1 RY7       0.160300
     14 C3          33.4840    18.7860     5.3130 c6         1 RY7       0.145300
     15 C4          32.2820    19.4140     6.0940 c6         1 RY7       0.141500
     16 C5          30.9690    18.6810     5.6530 c6         1 RY7       0.157300
     17 C6          29.6920    19.3090     6.2700 c3         1 RY7      -0.092100
     18 N4          32.4940    19.3520     7.5740 n7         1 RY7      -0.914400
     19 O2          34.3630    18.3530     3.0670 oh         1 RY7      -0.710000
     20 O3          34.7430    19.4140     5.6400 oh         1 RY7      -0.759000
     21 O5          30.7970    18.7520     4.2120 os         1 RY7      -0.491000
     22 H1A         33.5740    21.1750     7.3380 h1         1 RY7       0.073700
     23 H2A         34.9840    21.0360     9.2990 h1         1 RY7       0.053700
     24 H3A         33.4760    18.4590     9.9830 h1         1 RY7       0.066700
     25 H4A         33.6660    21.1550    11.4220 h1         1 RY7       0.064700
     26 H5A         31.2770    19.7490    10.0990 hc         1 RY7       0.055700
     27 H6A1        29.9980    21.8000    10.5360 h1         1 RY7       0.032200
     28 H6A2        30.4470    20.9310    12.0050 h1         1 RY7       0.032200
     29 H7A1        32.7250    22.3310     9.2490 hc         1 RY7       0.061700
     30 H7A2        31.3460    21.6210     8.4340 hc         1 RY7       0.061700
     31 HOA2        35.8580    18.7880     8.9460 ho         1 RY7       0.525000
     32 HOA3        34.8630    18.7740    11.9420 ho         1 RY7       0.451000
     33 HOA4        32.3700    20.1850    12.9750 ho         1 RY7       0.509000
     34 HOA6        30.7580    23.2520    12.1240 ho         1 RY7       0.444000
     35 H1          31.6500    18.3550     2.3580 h2         1 RY7       0.076700
     36 H2          33.1080    19.9440     3.5330 h1         1 RY7       0.051700
     37 H3          33.5320    17.7210     5.5870 h1         1 RY7       0.063700
     38 H4          32.1720    20.4670     5.7900 h1         1 RY7       0.052700
     39 H5          31.0140    17.6260     5.9630 h1         1 RY7       0.054700
     40 H62         29.6790    19.2050     7.3610 hc         1 RY7       0.044700
     41 H63         29.6210    20.3780     6.0330 hc         1 RY7       0.044700
     42 H61         28.7900    18.8190     5.8850 hc         1 RY7       0.044700
     43 HN41        31.5810    19.2920     8.0360 hn         1 RY7       0.428000
     44 HO2         35.1210    18.5760     3.6620 ho         1 RY7       0.525000
     45 HO3         34.8210    19.3500     6.6420 ho         1 RY7       0.552000
     46 O1          31.8540    16.7740     3.6880 oh         1 RY7      -0.722000
     47 HO1         30.9270    16.4970     3.5200 ho         1 RY7       0.509000
@<TRIPOS>BOND
     1     1     2 1   
     2     1     7 1   
     3     1    18 1   
     4     1    22 1   
     5     2     3 1   
     6     2     8 1   
     7     2    23 1   
     8     3     4 1   
     9     3     9 1   
    10     3    24 1   
    11     4     5 1   
    12     4    10 1   
    13     4    25 1   
    14     5     6 1   
    15     5     7 1   
    16     5    26 1   
    17     6    11 1   
    18     6    27 1   
    19     6    28 1   
    20     7    29 1   
    21     7    30 1   
    22     8    31 1   
    23     9    32 1   
    24    10    33 1   
    25    11    34 1   
    26    12    13 1   
    27    12    21 1   
    28    12    35 1   
    29    12    46 1   
    30    13    14 1   
    31    13    19 1   
    32    13    36 1   
    33    14    15 1   
    34    14    20 1   
    35    14    37 1   
    36    15    16 1   
    37    15    18 1   
    38    15    38 1   
    39    16    17 1   
    40    16    21 1   
    41    16    39 1   
    42    17    40 1   
    43    17    41 1   
    44    17    42 1   
    45    18    43 1   
    46    19    44 1   
    47    20    45 1   
    48    46    47 1   
@<TRIPOS>SUBSTRUCTURE
     1 RY7         1 TEMP              0 ****  ****    0 ROOT
