@<TRIPOS>MOLECULE
RY8
   46    48     1     0     0
SMALL
abcg2


@<TRIPOS>ATOM
      1 C4          -4.4530   -14.5890     4.2770 cc         1 RY8       0.340500
      2 C5          -5.2790   -15.6410     4.0020 cd         1 RY8      -0.262000
      3 C6          -0.1920   -14.5360     3.9580 ca         1 RY8      -0.151600
      4 C7          -0.8980   -13.3770     4.2690 ca         1 RY8      -0.077000
      5 C8          -0.9000   -15.7140     3.7290 ca         1 RY8      -0.077000
      6 C10         -2.2800   -15.7330     3.8210 ca         1 RY8      -0.098000
      7 C13          1.2910   -14.4560     3.8520 c          1 RY8       0.615700
      8 C15          3.3670   -15.6860     4.1670 ca         1 RY8      -0.057000
      9 C17          5.4670   -16.0950     5.2860 ca         1 RY8      -0.083300
     10 C20          4.0280   -15.5110     2.9570 ca         1 RY8       0.000000
     11 C21          6.2540   -16.4130     6.5220 c3         1 RY8      -0.049800
     12 C1          -6.3800   -13.6180     4.7590 cd         1 RY8       0.445700
     13 C11         -2.9910   -14.5800     4.1590 ca         1 RY8      -0.092500
     14 C12         -7.3490   -12.5620     5.1640 c3         1 RY8      -0.128400
     15 C16          6.1250   -15.9030     4.0810 ca         1 RY8      -0.030000
     16 C18          5.4040   -15.6140     2.9300 ca         1 RY8      -0.307500
     17 C19          4.0680   -15.9660     5.3420 ca         1 RY8      -0.040300
     18 C9          -2.2760   -13.4020     4.3830 ca         1 RY8      -0.098000
     19 N14          1.9600   -15.5880     4.1920 ns         1 RY8      -0.171000
     20 N2          -5.1000   -13.4580     4.7020 nc         1 RY8      -0.645000
     21 N24          6.7040   -16.9150     0.8770 n8         1 RY8      -1.001100
     22 O25          5.3320   -14.8970     0.4160 o          1 RY8      -0.526000
     23 O26          7.5090   -14.7090     1.6700 o          1 RY8      -0.526000
     24 O27          1.8560   -13.4350     3.5020 o          1 RY8      -0.564100
     25 S23          6.2700   -15.4170     1.3960 sy         1 RY8       1.144600
     26 S3          -6.9020   -15.1970     4.2860 ss         1 RY8      -0.025400
     27 H1          -5.0240   -16.6310     3.6590 h4         1 RY8       0.162000
     28 H2          -0.3660   -12.4510     4.4410 ha         1 RY8       0.125000
     29 H3          -0.3860   -16.6260     3.4500 ha         1 RY8       0.125000
     30 H4          -2.7980   -16.6620     3.6220 ha         1 RY8       0.128000
     31 H5           3.4630   -15.3120     2.0560 ha         1 RY8       0.154000
     32 H6           6.1390   -15.6340     7.2780 hc         1 RY8       0.046033
     33 H7           5.9250   -17.3490     6.9760 hc         1 RY8       0.046033
     34 H8           7.3150   -16.5030     6.3000 hc         1 RY8       0.046033
     35 H9           3.2290   -17.1960     6.8910 hc         1 RY8       0.050033
     36 H10          3.9090   -15.6850     7.4670 hc         1 RY8       0.050033
     37 H11          2.3630   -15.6860     6.6370 hc         1 RY8       0.050033
     38 H12         -8.3320   -12.9740     5.3790 hc         1 RY8       0.059700
     39 H13         -6.9890   -12.0450     6.0530 hc         1 RY8       0.059700
     40 H14         -7.4610   -11.8230     4.3690 hc         1 RY8       0.059700
     41 H15          7.2050   -15.9800     4.0510 ha         1 RY8       0.127000
     42 H16         -2.8040   -12.4970     4.6470 ha         1 RY8       0.128000
     43 H17          1.4500   -16.3330     4.6400 hn         1 RY8       0.157000
     44 H18          7.3830   -17.3780     1.4700 hn         1 RY8       0.475000
     45 H19          5.9180   -17.5220     0.6710 hn         1 RY8       0.475000
     46 C22          3.3520   -16.1380     6.6480 c3         1 RY8      -0.058800
@<TRIPOS>BOND
     1     1     2 2   
     2     1    13 1   
     3     1    20 1   
     4     2    26 1   
     5     2    27 1   
     6     3     4 ar  
     7     3     5 ar  
     8     3     7 1   
     9     4    18 ar  
    10     4    28 1   
    11     5     6 ar  
    12     5    29 1   
    13     6    13 ar  
    14     6    30 1   
    15     7    19 1   
    16     7    24 2   
    17     8    10 ar  
    18     8    17 ar  
    19     8    19 1   
    20     9    11 1   
    21     9    15 ar  
    22     9    17 ar  
    23    10    16 ar  
    24    10    31 1   
    25    11    32 1   
    26    11    33 1   
    27    11    34 1   
    28    12    14 1   
    29    12    20 2   
    30    12    26 1   
    31    13    18 ar  
    32    14    38 1   
    33    14    39 1   
    34    14    40 1   
    35    15    16 ar  
    36    15    41 1   
    37    16    25 1   
    38    17    46 1   
    39    18    42 1   
    40    19    43 1   
    41    21    25 1   
    42    21    44 1   
    43    21    45 1   
    44    22    25 2   
    45    23    25 2   
    46    35    46 1   
    47    36    46 1   
    48    37    46 1   
@<TRIPOS>SUBSTRUCTURE
     1 RY8         1 TEMP              0 ****  ****    0 ROOT
