@<TRIPOS>MOLECULE
RY8
   46    48     1     0     0
SMALL
No Charge or Current Charge


@<TRIPOS>ATOM
      1 C4          -4.4770   -14.4780     4.6290 cc         1 RY8       0.340500
      2 C5          -5.0860   -15.6140     5.1050 cd         1 RY8      -0.262000
      3 C6          -0.2200   -14.3800     3.8410 ca         1 RY8      -0.151600
      4 C7          -1.1050   -13.4880     3.1970 ca         1 RY8      -0.077000
      5 C8          -0.7630   -15.3130     4.7580 ca         1 RY8      -0.077000
      6 C10         -2.1460   -15.3510     5.0100 ca         1 RY8      -0.098000
      7 C13          1.2680   -14.3080     3.5400 c          1 RY8       0.615700
      8 C15          3.4700   -15.4830     4.1870 ca         1 RY8      -0.057000
      9 C17          5.4390   -16.5300     5.2130 ca         1 RY8      -0.083300
     10 C20          4.2730   -15.0690     3.1010 ca         1 RY8       0.000000
     11 C21          6.1180   -17.3380     6.3190 c3         1 RY8      -0.049800
     12 C1          -6.5260   -13.6990     4.7260 cd         1 RY8       0.445700
     13 C11         -3.0310   -14.4740     4.3460 ca         1 RY8      -0.092500
     14 C12         -7.6380   -12.7010     4.5830 c3         1 RY8      -0.128400
     15 C16          6.2240   -16.0980     4.1280 ca         1 RY8      -0.030000
     16 C18          5.6470   -15.3690     3.0720 ca         1 RY8      -0.307500
     17 C19          4.0540   -16.2170     5.2530 ca         1 RY8      -0.040300
     18 C9          -2.4860   -13.5290     3.4520 ca         1 RY8      -0.098000
     19 N14          2.0690   -15.2140     4.2260 ns         1 RY8      -0.171000
     20 N2          -5.2800   -13.3900     4.3990 nc         1 RY8      -0.645000
     21 N24          6.4590   -16.0930     0.6510 n8         1 RY8      -1.001100
     22 O25          6.0360   -13.6910     1.0110 o          1 RY8      -0.526000
     23 O26          8.0660   -14.8880     2.0370 o          1 RY8      -0.526000
     24 O27          1.7180   -13.4840     2.7520 o          1 RY8      -0.564100
     25 S23          6.6500   -14.8380     1.6810 sy         1 RY8       1.144600
     26 S3          -6.8050   -15.3340     5.3230 ss         1 RY8      -0.025400
     27 H1          -4.6530   -16.5810     5.3210 h4         1 RY8       0.162000
     28 H2          -0.7250   -12.7500     2.4920 ha         1 RY8       0.125000
     29 H3          -0.1300   -16.0160     5.2920 ha         1 RY8       0.125000
     30 H4          -2.5180   -16.0680     5.7380 ha         1 RY8       0.128000
     31 H5           3.8370   -14.5330     2.2620 ha         1 RY8       0.154000
     32 H6           6.1460   -16.7730     7.2580 hc         1 RY8       0.046033
     33 H7           5.5900   -18.2810     6.5030 hc         1 RY8       0.046033
     34 H8           7.1520   -17.5940     6.0630 hc         1 RY8       0.046033
     35 H9           2.5910   -17.5570     6.1600 hc         1 RY8       0.050033
     36 H10          3.7500   -16.9150     7.3290 hc         1 RY8       0.050033
     37 H11          2.4730   -15.8850     6.7350 hc         1 RY8       0.050033
     38 H12         -8.5930   -13.1230     4.9170 hc         1 RY8       0.059700
     39 H13         -7.4380   -11.8060     5.1820 hc         1 RY8       0.059700
     40 H14         -7.7530   -12.3930     3.5380 hc         1 RY8       0.059700
     41 H15          7.2860   -16.3370     4.1060 ha         1 RY8       0.127000
     42 H16         -3.1350   -12.8230     2.9390 ha         1 RY8       0.128000
     43 H17          1.5630   -15.8020     4.8740 hn         1 RY8       0.157000
     44 H18          7.4290   -16.3270     0.4520 hn         1 RY8       0.475000
     45 H19          6.1520   -16.8340     1.2750 hn         1 RY8       0.475000
     46 C22          3.1750   -16.6690     6.4300 c3         1 RY8      -0.058800
@<TRIPOS>BOND
     1     1     2 2   
     2     1    13 1   
     3     1    20 1   
     4     2    26 1   
     5     2    27 1   
     6     3     4 ar  
     7     3     5 ar  
     8     3     7 1   
     9     4    18 ar  
    10     4    28 1   
    11     5     6 ar  
    12     5    29 1   
    13     6    13 ar  
    14     6    30 1   
    15     7    19 1   
    16     7    24 2   
    17     8    10 ar  
    18     8    17 ar  
    19     8    19 1   
    20     9    11 1   
    21     9    15 ar  
    22     9    17 ar  
    23    10    16 ar  
    24    10    31 1   
    25    11    32 1   
    26    11    33 1   
    27    11    34 1   
    28    12    14 1   
    29    12    20 2   
    30    12    26 1   
    31    13    18 ar  
    32    14    38 1   
    33    14    39 1   
    34    14    40 1   
    35    15    16 ar  
    36    15    41 1   
    37    16    25 1   
    38    17    46 1   
    39    18    42 1   
    40    19    43 1   
    41    21    25 1   
    42    21    44 1   
    43    21    45 1   
    44    22    25 2   
    45    23    25 2   
    46    35    46 1   
    47    36    46 1   
    48    37    46 1   
@<TRIPOS>SUBSTRUCTURE
     1 RY8         1 TEMP              0 ****  ****    0 ROOT
