@<TRIPOS>MOLECULE
RYA
   41    43     1     0     0
SMALL
bcc


@<TRIPOS>ATOM
      1 C4          -2.1420    -1.2160    -0.0560 ca         1 RYA      -0.258000
      2 C14          3.1140    -0.7990    -0.0840 ca         1 RYA      -0.200000
      3 C5           0.1750     0.0830     0.2200 ca         1 RYA       0.926900
      4 C6          -0.9280    -1.8280    -0.2470 ca         1 RYA       0.457200
      5 C11          4.9290     1.2170     0.3970 ca         1 RYA       0.126400
      6 C9           2.6510     0.4680     0.2670 ca         1 RYA       0.204600
      7 C10          3.5860     1.4810     0.5090 ca         1 RYA      -0.200000
      8 C12          5.4320    -0.0320     0.0480 ca         1 RYA       0.031100
      9 C13          4.4750    -1.0080    -0.1800 ca         1 RYA       0.126400
     10 N1          -3.2670     0.8170     0.4540 nh         1 RYA      -0.751300
     11 N2          -3.3710    -1.8800    -0.0790 n          1 RYA      -0.354000
     12 C3          -2.0930     0.1570     0.2680 ca         1 RYA       0.708200
     13 N3          -0.9460     0.7850     0.4120 nb         1 RYA      -0.813000
     14 C1          -4.5330    -1.1890    -0.1880 c          1 RYA       0.707500
     15 C2          -4.4020     0.3280    -0.3340 c6         1 RYA       0.151500
     16 N4           0.2390    -1.1900    -0.1200 nb         1 RYA      -0.763000
     17 O1          -5.6190    -1.7340    -0.2190 o          1 RYA      -0.609500
     18 N5           1.3150     0.8140     0.3990 nu         1 RYA      -0.733300
     19 O2           6.7630    -0.2090    -0.0410 oh         1 RYA      -0.470100
     20 F1           4.9170    -2.2320    -0.5200 f          1 RYA      -0.135400
     21 C16         -2.8530     3.7350    -1.4160 c1         1 RYA      -0.127500
     22 C17         -5.7040     1.0100     0.0420 c3         1 RYA      -0.092100
     23 H1           2.4340    -1.6130    -0.2790 ha         1 RYA       0.173000
     24 H2          -0.8640    -2.8800    -0.5010 h4         1 RYA       0.030100
     25 H3          -2.7190    -3.6740     0.7700 h1         1 RYA       0.052700
     26 H4          -4.3840    -3.6790     0.1820 h1         1 RYA       0.052700
     27 H5          -3.0490    -3.7630    -0.9700 h1         1 RYA       0.052700
     28 H6          -4.1140     2.5340     1.2700 h1         1 RYA       0.083700
     29 H7          -2.3860     2.3970     1.4630 h1         1 RYA       0.083700
     30 H8           3.2670     2.4790     0.7860 ha         1 RYA       0.173000
     31 H9          -4.2130     0.5170    -1.4030 h1         1 RYA       0.065700
     32 H10          1.1370     1.7760     0.6440 hn         1 RYA       0.458800
     33 H11          6.9710    -1.1130    -0.3010 ho         1 RYA       0.438000
     34 H12         -2.7150     4.3300    -2.2890 ha         1 RYA       0.169500
     35 H13         -5.6770     2.0710    -0.2000 hc         1 RYA       0.057700
     36 H14         -6.5210     0.5750    -0.5280 hc         1 RYA       0.057700
     37 H15         -5.9260     0.8960     1.1030 hc         1 RYA       0.057700
     38 C7          -3.3790    -3.3300    -0.0250 c3         1 RYA       0.082300
     39 C8          -3.2000     2.2340     0.7590 c3         1 RYA       0.299900
     40 F2           5.8120     2.1970     0.6300 f          1 RYA      -0.135400
     41 C15         -2.9980     3.0660    -0.4280 c1         1 RYA      -0.184100
@<TRIPOS>BOND
     1     1     4 ar  
     2     1    11 1   
     3     1    12 ar  
     4     2     6 ar  
     5     2     9 ar  
     6     2    23 1   
     7     3    13 ar  
     8     3    16 ar  
     9     3    18 1   
    10     4    16 ar  
    11     4    24 1   
    12     5     7 ar  
    13     5     8 ar  
    14     5    40 1   
    15     6     7 ar  
    16     6    18 1   
    17     7    30 1   
    18     8     9 ar  
    19     8    19 1   
    20     9    20 1   
    21    10    12 1   
    22    10    15 1   
    23    10    39 1   
    24    11    14 1   
    25    11    38 1   
    26    12    13 ar  
    27    14    15 1   
    28    14    17 2   
    29    15    22 1   
    30    15    31 1   
    31    18    32 1   
    32    19    33 1   
    33    21    34 1   
    34    21    41 3   
    35    22    35 1   
    36    22    36 1   
    37    22    37 1   
    38    25    38 1   
    39    26    38 1   
    40    27    38 1   
    41    28    39 1   
    42    29    39 1   
    43    39    41 1   
@<TRIPOS>SUBSTRUCTURE
     1 RYA         1 TEMP              0 ****  ****    0 ROOT
