@<TRIPOS>MOLECULE
RYA
   41    43     1     0     0
SMALL
No Charge or Current Charge


@<TRIPOS>ATOM
      1 C4          -2.1240    -1.2430     0.1620 ca         1 RYA      -0.220000
      2 C14          3.2200    -0.5460    -0.5370 ca         1 RYA      -0.182000
      3 C5           0.2220     0.0700     0.2940 ca         1 RYA       0.400900
      4 C6          -0.8860    -1.9110     0.0350 ca         1 RYA       0.128900
      5 C11          5.0620     0.9740     0.9280 ca         1 RYA       0.161500
      6 C9           2.7590     0.4760     0.3100 ca         1 RYA       0.343000
      7 C10          3.6880     1.2420     1.0300 ca         1 RYA      -0.182000
      8 C12          5.5320    -0.0600     0.0930 ca         1 RYA       0.031100
      9 C13          4.5930    -0.8140    -0.6410 ca         1 RYA       0.161500
     10 N1          -3.2510     0.9520     0.2670 nh         1 RYA      -0.751300
     11 N2          -3.3850    -1.9330    -0.0260 n          1 RYA      -0.194400
     12 C3          -2.0670     0.1680     0.2740 ca         1 RYA       0.379900
     13 N3          -0.8880     0.8130     0.3700 nb         1 RYA      -0.287000
     14 C1          -4.6020    -1.2280    -0.2040 c          1 RYA       0.565000
     15 C2          -4.4860     0.3320    -0.3510 c6         1 RYA       0.151500
     16 N4           0.2860    -1.2600     0.1260 nb         1 RYA      -0.237000
     17 O1          -5.6860    -1.8070    -0.2490 o          1 RYA      -0.534000
     18 N5           1.4030     0.7860     0.4330 nu         1 RYA      -0.926900
     19 O2           6.8790    -0.3250    -0.0110 oh         1 RYA      -0.509100
     20 F1           5.0120    -1.8040    -1.4620 f          1 RYA      -0.170500
     21 C16         -3.0770     3.7520    -1.8670 c1         1 RYA      -0.215000
     22 C17         -5.8120     1.0130     0.1230 c3         1 RYA      -0.092100
     23 H1           2.5260    -1.1260    -1.1330 ha         1 RYA       0.155000
     24 H2          -0.8200    -2.9850    -0.1330 h4         1 RYA       0.030100
     25 H3          -2.7180    -3.7190     0.9160 h1         1 RYA       0.052700
     26 H4          -4.4240    -3.7520     0.4440 h1         1 RYA       0.052700
     27 H5          -3.1580    -3.8900    -0.8080 h1         1 RYA       0.052700
     28 H6          -4.0790     2.7800     1.0290 h1         1 RYA       0.083700
     29 H7          -2.3440     2.7210     1.0870 h1         1 RYA       0.083700
     30 H8           3.3490     2.0410     1.6810 ha         1 RYA       0.155000
     31 H9          -4.4240     0.4870    -1.4380 h1         1 RYA       0.065700
     32 H10          1.2310     1.7330     0.7690 hn         1 RYA       0.514000
     33 H11          7.0090    -1.0720    -0.6370 ho         1 RYA       0.477000
     34 H12         -3.0290     4.2560    -2.8130 ha         1 RYA       0.257000
     35 H13         -5.8500     2.0730    -0.1490 hc         1 RYA       0.057700
     36 H14         -6.6900     0.5530    -0.3460 hc         1 RYA       0.057700
     37 H15         -5.9340     0.9320     1.2090 hc         1 RYA       0.057700
     38 C7          -3.4280    -3.4090     0.1390 c3         1 RYA       0.082300
     39 C8          -3.2030     2.4320     0.4660 c3         1 RYA       0.299900
     40 F2           5.9330     1.7240     1.6430 f          1 RYA      -0.170500
     41 C15         -3.1270     3.1700    -0.8070 c1         1 RYA      -0.184100
@<TRIPOS>BOND
     1     1     4 ar  
     2     1    11 1   
     3     1    12 ar  
     4     2     6 ar  
     5     2     9 ar  
     6     2    23 1   
     7     3    13 ar  
     8     3    16 ar  
     9     3    18 1   
    10     4    16 ar  
    11     4    24 1   
    12     5     7 ar  
    13     5     8 ar  
    14     5    40 1   
    15     6     7 ar  
    16     6    18 1   
    17     7    30 1   
    18     8     9 ar  
    19     8    19 1   
    20     9    20 1   
    21    10    12 1   
    22    10    15 1   
    23    10    39 1   
    24    11    14 1   
    25    11    38 1   
    26    12    13 ar  
    27    14    15 1   
    28    14    17 2   
    29    15    22 1   
    30    15    31 1   
    31    18    32 1   
    32    19    33 1   
    33    21    34 1   
    34    21    41 3   
    35    22    35 1   
    36    22    36 1   
    37    22    37 1   
    38    25    38 1   
    39    26    38 1   
    40    27    38 1   
    41    28    39 1   
    42    29    39 1   
    43    39    41 1   
@<TRIPOS>SUBSTRUCTURE
     1 RYA         1 TEMP              0 ****  ****    0 ROOT
