@<TRIPOS>MOLECULE
RYC
   42    44     1     0     0
SMALL
abcg2


@<TRIPOS>ATOM
      1 C02        -51.6810   -29.1180     8.0660 c          1 RYC       0.649100
      2 C04        -49.7900   -29.0660     6.4280 ca         1 RYC      -0.008000
      3 C05        -48.4170   -28.7960     6.3280 ca         1 RYC      -0.171500
      4 C06        -47.7700   -28.8560     5.1070 ca         1 RYC      -0.038000
      5 C07        -48.4700   -29.1820     3.9410 ca         1 RYC      -0.153600
      6 C08        -47.8260   -29.2710     2.5940 c          1 RYC       0.606700
      7 C10        -45.7210   -29.5750     1.3540 c5         1 RYC       0.165000
      8 C11        -44.3040   -30.1440     1.6680 c5         1 RYC      -0.198700
      9 C12        -44.2140   -31.0750     2.8920 c          1 RYC       0.717000
     10 C15        -43.3870   -28.9010     1.7650 c5         1 RYC      -0.023100
     11 C16        -44.0880   -27.8940     0.8920 ca         1 RYC      -0.155300
     12 C17        -43.5950   -26.7080     0.3570 ca         1 RYC       0.123100
     13 C19        -44.4280   -25.9130    -0.4320 ca         1 RYC      -0.153000
     14 C20        -45.7410   -26.3050    -0.6740 ca         1 RYC      -0.104000
     15 C21        -46.2470   -27.4890    -0.1390 ca         1 RYC      -0.114000
     16 C22        -45.4050   -28.2720     0.6410 ca         1 RYC      -0.055300
     17 C24        -49.8370   -29.4350     4.0470 ca         1 RYC      -0.038000
     18 C25        -50.4990   -29.3870     5.2640 ca         1 RYC      -0.171500
     19 N01        -51.8970   -28.9930     9.4080 nt         1 RYC      -0.612000
     20 N03        -50.3550   -29.0030     7.7020 ns         1 RYC      -0.160000
     21 N09        -46.4840   -29.3550     2.5790 ns         1 RYC      -0.481900
     22 O13        -44.4940   -30.5620     4.0160 o          1 RYC      -0.724500
     23 O14        -43.8680   -32.2610     2.6960 o          1 RYC      -0.724500
     24 O18        -42.3120   -26.2800     0.5650 oh         1 RYC      -0.559100
     25 O23        -48.5050   -29.2730     1.5580 o          1 RYC      -0.663100
     26 O26        -52.6000   -29.2810     7.2670 o          1 RYC      -0.627100
     27 H051       -47.8610   -28.5330     7.2200 ha         1 RYC       0.122500
     28 H061       -46.7140   -28.6240     5.0750 ha         1 RYC       0.136500
     29 H101       -46.2880   -30.2560     0.7180 h1         1 RYC       0.067700
     30 H111       -44.0060   -30.7140     0.7890 hc         1 RYC       0.052700
     31 H151       -42.3710   -29.1300     1.4380 hc         1 RYC       0.051200
     32 H152       -43.3270   -28.5460     2.7980 hc         1 RYC       0.051200
     33 H191       -44.0350   -24.9960    -0.8520 ha         1 RYC       0.109000
     34 H201       -46.3720   -25.6790    -1.2920 ha         1 RYC       0.099000
     35 H211       -47.2680   -27.7910    -0.3230 ha         1 RYC       0.133000
     36 H241       -50.3900   -29.6840     3.1510 ha         1 RYC       0.136500
     37 H251       -51.5540   -29.5960     5.3200 ha         1 RYC       0.122500
     38 H011       -52.8180   -29.2410     9.7320 hn         1 RYC       0.306000
     39 H012       -51.1450   -29.1020    10.0690 hn         1 RYC       0.306000
     40 H031       -49.7010   -28.8120     8.4460 hn         1 RYC       0.142000
     41 H091       -45.9630   -29.5640     3.4300 hn         1 RYC       0.377500
     42 H181       -41.8340   -26.9190     1.1090 ho         1 RYC       0.463000
@<TRIPOS>BOND
     1     1    19 1   
     2     1    20 1   
     3     1    26 2   
     4     2     3 ar  
     5     2    18 ar  
     6     2    20 1   
     7     3     4 ar  
     8     3    27 1   
     9     4     5 ar  
    10     4    28 1   
    11     5     6 1   
    12     5    17 ar  
    13     6    21 1   
    14     6    25 2   
    15     7     8 1   
    16     7    16 1   
    17     7    21 1   
    18     7    29 1   
    19     8     9 1   
    20     8    10 1   
    21     8    30 1   
    22     9    22 1   
    23     9    23 1   
    24    10    11 1   
    25    10    31 1   
    26    10    32 1   
    27    11    12 ar  
    28    11    16 ar  
    29    12    13 ar  
    30    12    24 1   
    31    13    14 ar  
    32    13    33 1   
    33    14    15 ar  
    34    14    34 1   
    35    15    16 ar  
    36    15    35 1   
    37    17    18 ar  
    38    17    36 1   
    39    18    37 1   
    40    19    38 1   
    41    19    39 1   
    42    20    40 1   
    43    21    41 1   
    44    24    42 1   
@<TRIPOS>SUBSTRUCTURE
     1 RYC         1 TEMP              0 ****  ****    0 ROOT
