@<TRIPOS>MOLECULE
RYC
   42    44     1     0     0
SMALL
No Charge or Current Charge


@<TRIPOS>ATOM
      1 C02        -51.7100   -29.0010     8.1270 c          1 RYC       0.649100
      2 C04        -49.7950   -29.1370     6.4230 ca         1 RYC      -0.008000
      3 C05        -48.3930   -29.1700     6.3520 ca         1 RYC      -0.171500
      4 C06        -47.7300   -29.2540     5.1140 ca         1 RYC      -0.038000
      5 C07        -48.4680   -29.3060     3.9070 ca         1 RYC      -0.153600
      6 C08        -47.8000   -29.3950     2.5490 c          1 RYC       0.606700
      7 C10        -45.7150   -29.6190     1.2800 c5         1 RYC       0.165000
      8 C11        -44.2410   -30.0870     1.6500 c5         1 RYC      -0.198700
      9 C12        -44.1370   -31.0430     2.8720 c          1 RYC       0.717000
     10 C15        -43.4050   -28.7640     1.8690 c5         1 RYC      -0.023100
     11 C16        -44.1320   -27.8320     0.9270 ca         1 RYC      -0.155300
     12 C17        -43.6680   -26.6120     0.4030 ca         1 RYC       0.123100
     13 C19        -44.4980   -25.8790    -0.4650 ca         1 RYC      -0.153000
     14 C20        -45.7800   -26.3630    -0.7980 ca         1 RYC      -0.104000
     15 C21        -46.2330   -27.5830    -0.2600 ca         1 RYC      -0.114000
     16 C22        -45.3940   -28.3050     0.6050 ca         1 RYC      -0.055300
     17 C24        -49.8780   -29.2700     3.9830 ca         1 RYC      -0.038000
     18 C25        -50.5340   -29.1870     5.2240 ca         1 RYC      -0.171500
     19 N01        -51.8480   -28.9240     9.4660 nt         1 RYC      -0.612000
     20 N03        -50.3900   -29.0520     7.7120 ns         1 RYC      -0.160000
     21 N09        -46.4240   -29.4710     2.5490 ns         1 RYC      -0.481900
     22 O13        -44.4190   -30.6380     3.9920 o          1 RYC      -0.724500
     23 O14        -43.7250   -32.1780     2.6840 o          1 RYC      -0.724500
     24 O18        -42.4330   -26.1350     0.7260 oh         1 RYC      -0.559100
     25 O23        -48.4500   -29.4000     1.5110 o          1 RYC      -0.663100
     26 O26        -52.6940   -29.0210     7.4070 o          1 RYC      -0.627100
     27 H051       -47.8030   -29.1310     7.2650 ha         1 RYC       0.122500
     28 H061       -46.6440   -29.2720     5.1180 ha         1 RYC       0.136500
     29 H101       -46.2040   -30.3300     0.5990 h1         1 RYC       0.067700
     30 H111       -43.8470   -30.6220     0.7790 hc         1 RYC       0.052700
     31 H151       -42.3480   -28.9070     1.6180 hc         1 RYC       0.051200
     32 H152       -43.4570   -28.3990     2.9020 hc         1 RYC       0.051200
     33 H191       -44.1510   -24.9360    -0.8780 ha         1 RYC       0.109000
     34 H201       -46.4190   -25.7940    -1.4690 ha         1 RYC       0.099000
     35 H211       -47.2230   -27.9600    -0.5100 ha         1 RYC       0.133000
     36 H241       -50.4760   -29.3070     3.0750 ha         1 RYC       0.136500
     37 H251       -51.6190   -29.1630     5.2280 ha         1 RYC       0.122500
     38 H011       -52.7750   -28.8820     9.8610 hn         1 RYC       0.306000
     39 H012       -51.0350   -28.9070    10.0630 hn         1 RYC       0.306000
     40 H031       -49.7170   -29.0240     8.4660 hn         1 RYC       0.142000
     41 H091       -45.9510   -29.5580     3.4420 hn         1 RYC       0.377500
     42 H181       -42.0180   -26.7660     1.3500 ho         1 RYC       0.463000
@<TRIPOS>BOND
     1     1    19 1   
     2     1    20 1   
     3     1    26 2   
     4     2     3 ar  
     5     2    18 ar  
     6     2    20 1   
     7     3     4 ar  
     8     3    27 1   
     9     4     5 ar  
    10     4    28 1   
    11     5     6 1   
    12     5    17 ar  
    13     6    21 1   
    14     6    25 2   
    15     7     8 1   
    16     7    16 1   
    17     7    21 1   
    18     7    29 1   
    19     8     9 1   
    20     8    10 1   
    21     8    30 1   
    22     9    22 1   
    23     9    23 1   
    24    10    11 1   
    25    10    31 1   
    26    10    32 1   
    27    11    12 ar  
    28    11    16 ar  
    29    12    13 ar  
    30    12    24 1   
    31    13    14 ar  
    32    13    33 1   
    33    14    15 ar  
    34    14    34 1   
    35    15    16 ar  
    36    15    35 1   
    37    17    18 ar  
    38    17    36 1   
    39    18    37 1   
    40    19    38 1   
    41    19    39 1   
    42    20    40 1   
    43    21    41 1   
    44    24    42 1   
@<TRIPOS>SUBSTRUCTURE
     1 RYC         1 TEMP              0 ****  ****    0 ROOT
