@<TRIPOS>MOLECULE
RYD
   21    22     1     0     0
SMALL
No Charge or Current Charge


@<TRIPOS>ATOM
      1 N1          33.0310    34.6390     0.8160 nc         1 RYD      -0.218400
      2 C4          33.4500    38.0710    -0.6700 ca         1 RYD      -0.117300
      3 C5          32.7320    39.1480    -1.4690 c3         1 RYD       0.211900
      4 C6          32.7820    36.8630    -0.3540 ca         1 RYD      -0.001000
      5 C7          33.4690    35.8900     0.3870 ca         1 RYD       0.009400
      6 O           32.8250    38.8660    -2.8680 oh         1 RYD      -0.653000
      7 C3          34.7880    38.2740    -0.2400 ca         1 RYD      -0.063000
      8 C2          35.4590    37.2810     0.5050 ca         1 RYD      -0.116000
      9 C1          34.7490    36.1070     0.7900 ca         1 RYD      -0.077200
     10 N2          34.0420    34.0790     1.4870 nd         1 RYD      -0.163400
     11 N           35.0880    34.9790     1.4680 na         1 RYD       0.066600
     12 C           36.3900    34.7330     2.1020 c3         1 RYD       0.073900
     13 H1          33.1770    40.1270    -1.2470 h1         1 RYD       0.024200
     14 H2          31.6790    39.1870    -1.1580 h1         1 RYD       0.024200
     15 H3          31.7590    36.6870    -0.6770 ha         1 RYD       0.138000
     16 H4          32.3530    39.5920    -3.3340 ho         1 RYD       0.442000
     17 H5          35.3040    39.2000    -0.4840 ha         1 RYD       0.115000
     18 H6          36.4830    37.4250     0.8400 ha         1 RYD       0.125000
     19 H7          36.3920    33.7460     2.5790 h1         1 RYD       0.060367
     20 H8          37.1790    34.7700     1.3420 h1         1 RYD       0.060367
     21 H9          36.5780    35.5020     2.8610 h1         1 RYD       0.060367
@<TRIPOS>BOND
     1     1     5 1   
     2     1    10 2   
     3     2     3 1   
     4     2     4 ar  
     5     2     7 ar  
     6     3     6 1   
     7     3    13 1   
     8     3    14 1   
     9     4     5 ar  
    10     4    15 1   
    11     5     9 ar  
    12     6    16 1   
    13     7     8 ar  
    14     7    17 1   
    15     8     9 ar  
    16     8    18 1   
    17     9    11 1   
    18    10    11 1   
    19    11    12 1   
    20    12    19 1   
    21    12    20 1   
    22    12    21 1   
@<TRIPOS>SUBSTRUCTURE
     1 RYD         1 TEMP              0 ****  ****    0 ROOT
