@<TRIPOS>MOLECULE
RYD
   21    22     1     0     0
SMALL
abcg2


@<TRIPOS>ATOM
      1 N1          33.1330    34.6670     0.7240 nc         1 RYD      -0.218400
      2 C4          33.4630    38.0830    -0.6640 ca         1 RYD      -0.117300
      3 C5          32.7750    39.1550    -1.4630 c3         1 RYD       0.211900
      4 C6          32.8170    36.8890    -0.4170 ca         1 RYD      -0.001000
      5 C7          33.5030    35.9180     0.3170 ca         1 RYD       0.009400
      6 O           32.6230    38.6990    -2.7910 oh         1 RYD      -0.653000
      7 C3          34.7810    38.2930    -0.1940 ca         1 RYD      -0.063000
      8 C2          35.4730    37.3500     0.5330 ca         1 RYD      -0.116000
      9 C1          34.8000    36.1530     0.7780 ca         1 RYD      -0.077200
     10 N2          34.1050    34.1580     1.3800 nd         1 RYD      -0.163400
     11 N           35.1180    35.0140     1.4350 na         1 RYD       0.066600
     12 C           36.3430    34.6900     2.1240 c3         1 RYD       0.073900
     13 H1          33.3660    40.0780    -1.4170 h1         1 RYD       0.024200
     14 H2          31.8030    39.3800    -1.0080 h1         1 RYD       0.024200
     15 H3          31.8090    36.7080    -0.7670 ha         1 RYD       0.138000
     16 H4          32.1020    39.3520    -3.2680 ho         1 RYD       0.442000
     17 H5          35.2600    39.2380    -0.4140 ha         1 RYD       0.115000
     18 H6          36.4790    37.5350     0.8860 ha         1 RYD       0.125000
     19 H7          36.2430    33.6990     2.5540 h1         1 RYD       0.060367
     20 H8          37.1820    34.6970     1.4290 h1         1 RYD       0.060367
     21 H9          36.5290    35.4090     2.9190 h1         1 RYD       0.060367
@<TRIPOS>BOND
     1     1     5 1   
     2     1    10 2   
     3     2     3 1   
     4     2     4 ar  
     5     2     7 ar  
     6     3     6 1   
     7     3    13 1   
     8     3    14 1   
     9     4     5 ar  
    10     4    15 1   
    11     5     9 ar  
    12     6    16 1   
    13     7     8 ar  
    14     7    17 1   
    15     8     9 ar  
    16     8    18 1   
    17     9    11 1   
    18    10    11 1   
    19    11    12 1   
    20    12    19 1   
    21    12    20 1   
    22    12    21 1   
@<TRIPOS>SUBSTRUCTURE
     1 RYD         1 TEMP              0 ****  ****    0 ROOT
