@<TRIPOS>MOLECULE
RYE
   60    62     1     0     0
SMALL
No Charge or Current Charge


@<TRIPOS>ATOM
      1 C           38.0180   -70.0150    33.3670 c          1 RYE       0.724000
      2 S1          34.5820   -71.5090    31.5150 ss         1 RYE      -0.429000
      3 C2          33.6770   -72.8120    32.4150 c6         1 RYE       0.125800
      4 C3          34.4770   -74.0680    32.7540 c2         1 RYE      -0.414400
      5 C4          35.8520   -74.0700    32.7830 ce         1 RYE       0.165800
      6 N5          36.5930   -72.8700    32.5560 nu         1 RYE      -0.750200
      7 C6          36.0290   -71.5210    32.6300 c6         1 RYE       0.378500
      8 CA          37.0250   -70.3890    32.2310 c3         1 RYE      -0.039300
      9 N10         37.7490   -70.6660    30.9600 ns         1 RYE      -0.453900
     10 C11         37.5740   -70.0130    29.7520 c          1 RYE       0.527800
     11 O12         36.8130   -69.0540    29.6530 o          1 RYE      -0.632100
     12 C13         38.4120   -70.5410    28.6060 ce         1 RYE       0.232300
     13 C14         38.4040   -69.7920    27.3390 cc         1 RYE       0.309700
     14 C15         38.5490   -68.4260    27.2070 cd         1 RYE      -0.209000
     15 N16         39.1480   -71.6050    28.7630 n2         1 RYE      -0.222700
     16 S16         38.5570   -67.9400    25.5190 ss         1 RYE      -0.176400
     17 C17         38.3980   -69.6410    25.1500 cd         1 RYE       0.656300
     18 O17         38.3920   -72.7860    28.9820 os         1 RYE      -0.299000
     19 C18         39.2150   -73.9130    29.4100 c3         1 RYE       0.043000
     20 N18         38.3620   -70.1480    23.9130 nv         1 RYE      -1.060900
     21 C19         38.2250   -75.1020    29.4850 c3         1 RYE      -0.071100
     22 N19         38.3450   -70.4840    26.1420 nc         1 RYE      -0.672000
     23 C20         40.2900   -74.1940    28.3140 c3         1 RYE      -0.071100
     24 C21         39.8410   -73.6930    30.8440 c          1 RYE       0.719000
     25 O2A         40.9010   -74.2480    31.1150 o          1 RYE      -0.722000
     26 O2B         39.3080   -72.8870    31.6010 o          1 RYE      -0.722000
     27 C5          33.5580   -75.2650    33.0410 c3         1 RYE       0.125800
     28 C7          36.7490   -75.3100    33.1020 c          1 RYE       0.706200
     29 O4A         37.9550   -75.1350    33.2350 o          1 RYE      -0.698500
     30 O4B         36.2580   -76.4270    33.2060 o          1 RYE      -0.698500
     31 N6          33.3120   -75.4950    34.4840 na         1 RYE       0.097300
     32 C26         33.7850   -76.6480    35.1220 ca         1 RYE      -0.056500
     33 C25         33.5640   -76.8610    36.4970 ca         1 RYE      -0.154500
     34 C24         32.8320   -75.9200    37.2420 ca         1 RYE      -0.042000
     35 C23         32.3160   -74.7810    36.6010 ca         1 RYE      -0.154500
     36 C22         32.5500   -74.5840    35.2250 ca         1 RYE      -0.005800
     37 OB          38.7710   -69.0670    33.1800 o          1 RYE      -0.719000
     38 OA          37.9860   -70.6350    34.4230 o          1 RYE      -0.719000
     39 H2A         33.3140   -72.3520    33.3440 h1         1 RYE       0.025200
     40 H2          32.7980   -73.0650    31.8060 h1         1 RYE       0.025200
     41 HN5         37.6170   -72.9750    32.4660 hn         1 RYE       0.564000
     42 H6          35.6410   -71.3130    33.6400 h2         1 RYE       0.077700
     43 HA          36.4180   -69.4860    32.0930 h1         1 RYE       0.071700
     44 HN10        38.3920   -71.4600    30.9460 hn         1 RYE       0.345500
     45 H15         38.6450   -67.6930    28.0010 h4         1 RYE       0.223000
     46 HN18        38.7150   -69.5650    23.1640 hn         1 RYE       0.459500
     47 H8          38.5300   -71.1440    23.8390 hn         1 RYE       0.459500
     48 H19A        38.7390   -76.0130    29.8150 hc         1 RYE       0.022367
     49 H19         37.4180   -74.8900    30.1950 hc         1 RYE       0.022367
     50 H19B        37.7750   -75.3000    28.5040 hc         1 RYE       0.022367
     51 H20         40.7650   -75.1680    28.4780 hc         1 RYE       0.022367
     52 H20B        39.8370   -74.2060    27.3150 hc         1 RYE       0.022367
     53 H20A        41.0810   -73.4340    28.3270 hc         1 RYE       0.022367
     54 H3'A        32.5780   -75.1110    32.5690 h1         1 RYE       0.089200
     55 H3          33.9500   -76.1800    32.5830 h1         1 RYE       0.089200
     56 H26         34.3360   -77.3740    34.5220 h4         1 RYE       0.205000
     57 H25         33.9530   -77.7560    36.9810 ha         1 RYE       0.143000
     58 H24         32.6540   -76.0800    38.3050 ha         1 RYE       0.127000
     59 H23         31.7310   -74.0550    37.1630 ha         1 RYE       0.143000
     60 H22         32.1420   -73.7190    34.7030 h4         1 RYE       0.205000
@<TRIPOS>BOND
     1     1     8 1   
     2     1    37 1   
     3     1    38 1   
     4     2     3 1   
     5     2     7 1   
     6     3     4 1   
     7     3    39 1   
     8     3    40 1   
     9     4     5 2   
    10     4    27 1   
    11     5     6 1   
    12     5    28 1   
    13     6     7 1   
    14     6    41 1   
    15     7     8 1   
    16     7    42 1   
    17     8     9 1   
    18     8    43 1   
    19     9    10 1   
    20     9    44 1   
    21    10    11 2   
    22    10    12 1   
    23    12    13 1   
    24    12    15 2   
    25    13    14 2   
    26    13    22 1   
    27    14    16 1   
    28    14    45 1   
    29    15    18 1   
    30    16    17 1   
    31    17    20 1   
    32    17    22 2   
    33    18    19 1   
    34    19    21 1   
    35    19    23 1   
    36    19    24 1   
    37    20    46 1   
    38    20    47 1   
    39    21    48 1   
    40    21    49 1   
    41    21    50 1   
    42    23    51 1   
    43    23    52 1   
    44    23    53 1   
    45    24    25 1   
    46    24    26 1   
    47    27    31 1   
    48    27    54 1   
    49    27    55 1   
    50    28    29 1   
    51    28    30 1   
    52    31    32 1   
    53    31    36 2   
    54    32    33 ar  
    55    32    56 1   
    56    33    34 ar  
    57    33    57 1   
    58    34    35 ar  
    59    34    58 1   
    60    35    36 ar  
    61    35    59 1   
    62    36    60 1   
@<TRIPOS>SUBSTRUCTURE
     1 RYE         1 TEMP              0 ****  ****    0 ROOT
