@<TRIPOS>MOLECULE
RYE
   60    62     1     0     0
SMALL
abcg2


@<TRIPOS>ATOM
      1 C           36.0260   -69.4040    31.8630 c          1 RYE       0.724000
      2 S1          34.8330   -73.3520    31.3390 ss         1 RYE      -0.429000
      3 C2          34.5960   -74.2400    32.9060 c6         1 RYE       0.125800
      4 C3          35.8080   -74.1760    33.7940 c2         1 RYE      -0.414400
      5 C4          36.6450   -73.1090    33.7940 ce         1 RYE       0.165800
      6 N5          36.4470   -72.0100    33.0170 nu         1 RYE      -0.750200
      7 C6          35.3290   -71.7890    32.1570 c6         1 RYE       0.378500
      8 CA          35.6460   -70.7230    31.1170 c3         1 RYE      -0.039300
      9 N10         36.6780   -71.2010    30.2310 ns         1 RYE      -0.453900
     10 C11         36.9890   -70.5650    29.1020 c          1 RYE       0.527800
     11 O12         36.4070   -69.5820    28.6730 o          1 RYE      -0.632100
     12 C13         38.1630   -71.1510    28.3560 ce         1 RYE       0.232300
     13 C14         39.4620   -70.5160    28.5460 cc         1 RYE       0.309700
     14 C15         39.7250   -69.6690    29.5770 cd         1 RYE      -0.209000
     15 N16         38.0470   -72.1360    27.5590 n2         1 RYE      -0.222700
     16 S16         41.3680   -69.1580    29.4970 ss         1 RYE      -0.176400
     17 C17         41.5710   -70.1440    28.0660 cd         1 RYE       0.656300
     18 O17         36.7730   -72.5840    27.4890 os         1 RYE      -0.299000
     19 C18         36.6940   -73.8700    26.8570 c3         1 RYE       0.043000
     20 N18         42.7430   -70.1530    27.3930 nv         1 RYE      -1.060900
     21 C19         35.2110   -74.2180    26.9380 c3         1 RYE      -0.071100
     22 N19         40.5060   -70.7830    27.6990 nc         1 RYE      -0.672000
     23 C20         37.1400   -73.7680    25.4050 c3         1 RYE      -0.071100
     24 C21         37.4910   -74.9330    27.6690 c          1 RYE       0.719000
     25 O2A         37.7790   -75.9720    27.0450 o          1 RYE      -0.722000
     26 O2B         37.7170   -74.6800    28.8650 o          1 RYE      -0.722000
     27 C5          36.0320   -75.3930    34.6230 c3         1 RYE       0.125800
     28 C7          37.9370   -72.9640    34.6260 c          1 RYE       0.706200
     29 O4A         38.7720   -72.1770    34.1520 o          1 RYE      -0.698500
     30 O4B         38.0260   -73.6030    35.6910 o          1 RYE      -0.698500
     31 N6          35.0470   -75.4610    35.7500 na         1 RYE       0.097300
     32 C26         35.1360   -74.5480    36.7270 ca         1 RYE      -0.056500
     33 C25         34.2360   -74.5500    37.7670 ca         1 RYE      -0.154500
     34 C24         33.2270   -75.5040    37.7900 ca         1 RYE      -0.042000
     35 C23         33.1540   -76.4350    36.7670 ca         1 RYE      -0.154500
     36 C22         34.0860   -76.3900    35.7540 ca         1 RYE      -0.005800
     37 OB          35.0650   -68.8130    32.3800 o          1 RYE      -0.719000
     38 OA          37.2320   -69.1030    31.9070 o          1 RYE      -0.719000
     39 H2A         33.6960   -73.8520    33.3910 h1         1 RYE       0.025200
     40 H2          34.3780   -75.2750    32.6300 h1         1 RYE       0.025200
     41 HN5         37.2540   -71.4030    32.9430 hn         1 RYE       0.564000
     42 H6          34.4570   -71.4510    32.7250 h2         1 RYE       0.077700
     43 HA          34.7330   -70.5440    30.5450 h1         1 RYE       0.071700
     44 HN10        37.2310   -71.9990    30.5050 hn         1 RYE       0.345500
     45 H15         39.0680   -69.3500    30.3740 h4         1 RYE       0.223000
     46 HN18        43.5870   -69.9060    27.8830 hn         1 RYE       0.459500
     47 H8          42.8560   -70.8920    26.7170 hn         1 RYE       0.459500
     48 H19A        35.0370   -75.1990    26.4980 hc         1 RYE       0.022367
     49 H19         34.8650   -74.2460    27.9730 hc         1 RYE       0.022367
     50 H19B        34.6030   -73.4940    26.3920 hc         1 RYE       0.022367
     51 H20         36.9580   -74.7070    24.8860 hc         1 RYE       0.022367
     52 H20B        36.5790   -72.9880    24.8860 hc         1 RYE       0.022367
     53 H20A        38.2020   -73.5400    25.3160 hc         1 RYE       0.022367
     54 H3'A        35.8790   -76.3040    34.0440 h1         1 RYE       0.089200
     55 H3          37.0170   -75.4250    35.0720 h1         1 RYE       0.089200
     56 H26         35.9530   -73.8440    36.6410 h4         1 RYE       0.205000
     57 H25         34.3330   -73.8110    38.5480 ha         1 RYE       0.143000
     58 H24         32.5080   -75.5190    38.5970 ha         1 RYE       0.127000
     59 H23         32.3850   -77.1920    36.7430 ha         1 RYE       0.143000
     60 H22         34.0810   -77.0870    34.9280 h4         1 RYE       0.205000
@<TRIPOS>BOND
     1     1     8 1   
     2     1    37 1   
     3     1    38 1   
     4     2     3 1   
     5     2     7 1   
     6     3     4 1   
     7     3    39 1   
     8     3    40 1   
     9     4     5 2   
    10     4    27 1   
    11     5     6 1   
    12     5    28 1   
    13     6     7 1   
    14     6    41 1   
    15     7     8 1   
    16     7    42 1   
    17     8     9 1   
    18     8    43 1   
    19     9    10 1   
    20     9    44 1   
    21    10    11 2   
    22    10    12 1   
    23    12    13 1   
    24    12    15 2   
    25    13    14 2   
    26    13    22 1   
    27    14    16 1   
    28    14    45 1   
    29    15    18 1   
    30    16    17 1   
    31    17    20 1   
    32    17    22 2   
    33    18    19 1   
    34    19    21 1   
    35    19    23 1   
    36    19    24 1   
    37    20    46 1   
    38    20    47 1   
    39    21    48 1   
    40    21    49 1   
    41    21    50 1   
    42    23    51 1   
    43    23    52 1   
    44    23    53 1   
    45    24    25 1   
    46    24    26 1   
    47    27    31 1   
    48    27    54 1   
    49    27    55 1   
    50    28    29 1   
    51    28    30 1   
    52    31    32 1   
    53    31    36 2   
    54    32    33 ar  
    55    32    56 1   
    56    33    34 ar  
    57    33    57 1   
    58    34    35 ar  
    59    34    58 1   
    60    35    36 ar  
    61    35    59 1   
    62    36    60 1   
@<TRIPOS>SUBSTRUCTURE
     1 RYE         1 TEMP              0 ****  ****    0 ROOT
