@<TRIPOS>MOLECULE
RYF
   25    27     1     0     0
SMALL
No Charge or Current Charge


@<TRIPOS>ATOM
      1 N12        -11.9930   -13.8890    10.2390 na         1 RYF      -0.153100
      2 C15        -10.2560   -14.7960    11.2340 ca         1 RYF      -0.390900
      3 C17         -6.7250   -17.5570    15.0310 ca         1 RYF      -0.052000
      4 C02         -5.3610   -17.4690    14.7130 ca         1 RYF       0.168000
      5 C03         -4.9500   -16.7450    13.5830 ca         1 RYF      -0.052000
      6 C04         -5.9070   -16.1130    12.7670 ca         1 RYF      -0.151000
      7 C05         -7.2770   -16.2080    13.0680 ca         1 RYF       0.319000
      8 N06         -8.1920   -15.5540    12.2390 nu         1 RYF      -0.921900
      9 C07         -9.5330   -15.7470    11.9430 ca         1 RYF       0.457900
     10 N08        -10.1300   -16.8980    12.3070 nb         1 RYF      -0.291000
     11 C09        -11.4340   -17.0390    11.9610 ca         1 RYF       0.195900
     12 N10        -12.1930   -16.1440    11.2810 nb         1 RYF      -0.215000
     13 C11        -11.5640   -15.0100    10.9240 ca         1 RYF       0.155500
     14 N13        -10.9590   -12.9420    10.1070 nc         1 RYF      -0.512100
     15 C14         -9.9050   -13.5030    10.7170 cd         1 RYF       0.383800
     16 C16         -7.6800   -16.9240    14.2120 ca         1 RYF      -0.151000
     17 H1         -12.9290   -13.7370     9.8660 hn         1 RYF       0.391000
     18 H2          -7.0410   -18.1080    15.9130 ha         1 RYF       0.128500
     19 H3          -3.8920   -16.6740    13.3410 ha         1 RYF       0.128500
     20 H4          -5.5790   -15.5560    11.8940 ha         1 RYF       0.135000
     21 H5          -7.7700   -14.8290    11.6650 hn         1 RYF       0.502000
     22 H6         -11.9210   -17.9660    12.2570 h5         1 RYF       0.051100
     23 H7          -8.9660   -12.9640    10.7580 h4         1 RYF       0.048800
     24 H8          -8.7290   -16.9810    14.4860 ha         1 RYF       0.135000
     25 I01         -3.8910   -18.4410    15.9720 i          1 RYF      -0.310000
@<TRIPOS>BOND
     1     1    13 1   
     2     1    14 1   
     3     1    17 1   
     4     2     9 ar  
     5     2    13 ar  
     6     2    15 1   
     7     3     4 ar  
     8     3    16 ar  
     9     3    18 1   
    10     4     5 ar  
    11     4    25 1   
    12     5     6 ar  
    13     5    19 1   
    14     6     7 ar  
    15     6    20 1   
    16     7     8 1   
    17     7    16 ar  
    18     8     9 1   
    19     8    21 1   
    20     9    10 ar  
    21    10    11 ar  
    22    11    12 ar  
    23    11    22 1   
    24    12    13 ar  
    25    14    15 2   
    26    15    23 1   
    27    16    24 1   
@<TRIPOS>SUBSTRUCTURE
     1 RYF         1 TEMP              0 ****  ****    0 ROOT
