@<TRIPOS>MOLECULE
RYF
   25    27     1     0     0
SMALL
abcg2


@<TRIPOS>ATOM
      1 N12        -11.9410   -14.0670    10.1190 na         1 RYF      -0.153100
      2 C15        -10.1470   -14.7680    11.1610 ca         1 RYF      -0.390900
      3 C17         -6.7130   -17.9030    14.7280 ca         1 RYF      -0.052000
      4 C02         -5.3830   -17.5230    14.6620 ca         1 RYF       0.168000
      5 C03         -4.9940   -16.4950    13.8140 ca         1 RYF      -0.052000
      6 C04         -5.9440   -15.8570    13.0380 ca         1 RYF      -0.151000
      7 C05         -7.2920   -16.2280    13.0910 ca         1 RYF       0.319000
      8 N06         -8.1620   -15.5100    12.2730 nu         1 RYF      -0.921900
      9 C07         -9.4860   -15.6480    12.0450 ca         1 RYF       0.457900
     10 N08        -10.1890   -16.6040    12.6370 nb         1 RYF      -0.291000
     11 C09        -11.4960   -16.7050    12.3740 ca         1 RYF       0.195900
     12 N10        -12.2290   -15.9620    11.5760 nb         1 RYF      -0.215000
     13 C11        -11.5130   -14.9990    10.9860 ca         1 RYF       0.155500
     14 N13        -10.9540   -13.2510     9.7260 nc         1 RYF      -0.512100
     15 C14         -9.8670   -13.6500    10.3360 cd         1 RYF       0.383800
     16 C16         -7.6670   -17.2630    13.9500 ca         1 RYF      -0.151000
     17 H1         -12.8760   -13.9350     9.7660 hn         1 RYF       0.391000
     18 H2          -7.0320   -18.7020    15.3840 ha         1 RYF       0.128500
     19 H3          -3.9610   -16.1810    13.7460 ha         1 RYF       0.128500
     20 H4          -5.6280   -15.0560    12.3800 ha         1 RYF       0.135000
     21 H5          -7.7180   -14.7670    11.7540 hn         1 RYF       0.502000
     22 H6         -12.0090   -17.5090    12.8910 h5         1 RYF       0.051100
     23 H7          -8.9300   -13.1380    10.1770 h4         1 RYF       0.048800
     24 H8          -8.6960   -17.5740    14.0150 ha         1 RYF       0.135000
     25 I01         -3.9500   -18.5000    15.8480 i          1 RYF      -0.310000
@<TRIPOS>BOND
     1     1    13 1   
     2     1    14 1   
     3     1    17 1   
     4     2     9 ar  
     5     2    13 ar  
     6     2    15 1   
     7     3     4 ar  
     8     3    16 ar  
     9     3    18 1   
    10     4     5 ar  
    11     4    25 1   
    12     5     6 ar  
    13     5    19 1   
    14     6     7 ar  
    15     6    20 1   
    16     7     8 1   
    17     7    16 ar  
    18     8     9 1   
    19     8    21 1   
    20     9    10 ar  
    21    10    11 ar  
    22    11    12 ar  
    23    11    22 1   
    24    12    13 ar  
    25    14    15 2   
    26    15    23 1   
    27    16    24 1   
@<TRIPOS>SUBSTRUCTURE
     1 RYF         1 TEMP              0 ****  ****    0 ROOT
