@<TRIPOS>MOLECULE
RYG
   30    31     1     0     0
SMALL
No Charge or Current Charge


@<TRIPOS>ATOM
      1 N1           8.6180    23.1780     1.2630 ns         1 RYG      -0.494900
      2 C4           4.3320    21.6730     0.4520 cc         1 RYG       0.141900
      3 C5           7.4740    22.7890     1.9340 c          1 RYG       0.538600
      4 C6           9.8690    23.6420     1.9040 c3         1 RYG       0.034700
      5 C7           9.6820    25.0560     2.5310 c3         1 RYG      -0.089400
      6 C8          10.9480    25.9470     2.5920 c3         1 RYG      -0.074400
      7 C10         12.6390    23.9440     2.8230 c3         1 RYG       0.105000
      8 C1           5.0350    21.9060    -0.6990 cd         1 RYG      -0.201000
      9 C11         11.0580    23.5620     0.8940 c          1 RYG       0.559000
     10 C2           6.3170    22.3590    -0.3270 cd         1 RYG      -0.140000
     11 C3           6.3450    22.3840     1.0480 cc         1 RYG       0.059500
     12 C9          12.1680    25.3320     3.3230 c3         1 RYG      -0.098400
     13 N2          12.3300    23.6880     1.4120 ns         1 RYG      -0.497900
     14 O1           5.1250    21.9620     1.5400 os         1 RYG      -0.193000
     15 O2           7.4190    22.7820     3.1570 o          1 RYG      -0.590100
     16 O3          10.9030    23.3770    -0.3050 o          1 RYG      -0.577000
     17 H1           8.5960    23.1350     0.2500 hn         1 RYG       0.343500
     18 H3          10.1080    22.9370     2.7100 h1         1 RYG       0.085700
     19 H4           8.9300    25.6040     1.9490 hc         1 RYG       0.060200
     20 H5           9.2660    24.9450     3.5390 hc         1 RYG       0.060200
     21 H6          11.2420    26.2270     1.5720 hc         1 RYG       0.047200
     22 H7          10.6850    26.8880     3.0890 hc         1 RYG       0.047200
     23 H8          12.1650    23.1600     3.4290 h1         1 RYG       0.052200
     24 H9          13.7230    23.8520     2.9740 h1         1 RYG       0.052200
     25 H10          4.6640    21.7660    -1.7100 ha         1 RYG       0.146000
     26 H11          7.1200    22.6340    -1.0040 ha         1 RYG       0.146000
     27 H12         13.0050    26.0330     3.2190 hc         1 RYG       0.049200
     28 H13         11.9580    25.2660     4.3980 hc         1 RYG       0.049200
     29 H14         13.0930    23.6260     0.7480 hn         1 RYG       0.320500
     30 H2           3.3250    21.3220     0.6330 h4         1 RYG       0.057100
@<TRIPOS>BOND
     1     1     3 1   
     2     1     4 1   
     3     1    17 1   
     4     2     8 2   
     5     2    14 1   
     6     2    30 1   
     7     3    11 1   
     8     3    15 2   
     9     4     5 1   
    10     4     9 1   
    11     4    18 1   
    12     5     6 1   
    13     5    19 1   
    14     5    20 1   
    15     6    12 1   
    16     6    21 1   
    17     6    22 1   
    18     7    12 1   
    19     7    13 1   
    20     7    23 1   
    21     7    24 1   
    22     8    10 1   
    23     8    25 1   
    24     9    13 1   
    25     9    16 2   
    26    10    11 2   
    27    10    26 1   
    28    11    14 1   
    29    12    27 1   
    30    12    28 1   
    31    13    29 1   
@<TRIPOS>SUBSTRUCTURE
     1 RYG         1 TEMP              0 ****  ****    0 ROOT
