@<TRIPOS>MOLECULE
RYG
   30    31     1     0     0
SMALL
abcg2


@<TRIPOS>ATOM
      1 N1           8.6770    23.2660     1.1690 ns         1 RYG      -0.494900
      2 C4           4.4580    21.6790     0.6120 cc         1 RYG       0.141900
      3 C5           7.5960    22.7950     1.8080 c          1 RYG       0.538600
      4 C6           9.8640    23.6940     1.8640 c3         1 RYG       0.034700
      5 C7           9.7070    25.1100     2.4720 c3         1 RYG      -0.089400
      6 C8          10.9870    25.9330     2.5950 c3         1 RYG      -0.074400
      7 C10         12.4820    23.8720     2.8750 c3         1 RYG       0.105000
      8 C1           4.9930    21.8360    -0.6250 cd         1 RYG      -0.201000
      9 C11         11.0340    23.6280     0.8880 c          1 RYG       0.559000
     10 C2           6.3180    22.3060    -0.4150 cd         1 RYG      -0.140000
     11 C3           6.4810    22.3970     0.9320 cc         1 RYG       0.059500
     12 C9          12.1230    25.2790     3.3740 c3         1 RYG      -0.098400
     13 N2          12.2460    23.6810     1.4560 ns         1 RYG      -0.497900
     14 O1           5.3480    22.0150     1.5570 os         1 RYG      -0.193000
     15 O2           7.5180    22.6850     3.0240 o          1 RYG      -0.590100
     16 O3          10.8600    23.5410    -0.3210 o          1 RYG      -0.577000
     17 H1           8.6770    23.3810     0.1660 hn         1 RYG       0.343500
     18 H3          10.0490    22.9800     2.6710 h1         1 RYG       0.085700
     19 H4           9.0090    25.6620     1.8400 hc         1 RYG       0.060200
     20 H5           9.2320    25.0050     3.4500 hc         1 RYG       0.060200
     21 H6          11.3430    26.1990     1.5970 hc         1 RYG       0.047200
     22 H7          10.7350    26.8800     3.0750 hc         1 RYG       0.047200
     23 H8          11.9280    23.1170     3.4350 h1         1 RYG       0.052200
     24 H9          13.5340    23.6610     3.0560 h1         1 RYG       0.052200
     25 H10          4.5070    21.6400    -1.5660 ha         1 RYG       0.146000
     26 H11          7.0450    22.5340    -1.1790 ha         1 RYG       0.146000
     27 H12         12.9990    25.9280     3.3110 hc         1 RYG       0.049200
     28 H13         11.8640    25.2100     4.4330 hc         1 RYG       0.049200
     29 H14         13.0380    23.7120     0.8320 hn         1 RYG       0.320500
     30 H2           3.4900    21.3490     0.9530 h4         1 RYG       0.057100
@<TRIPOS>BOND
     1     1     3 1   
     2     1     4 1   
     3     1    17 1   
     4     2     8 2   
     5     2    14 1   
     6     2    30 1   
     7     3    11 1   
     8     3    15 2   
     9     4     5 1   
    10     4     9 1   
    11     4    18 1   
    12     5     6 1   
    13     5    19 1   
    14     5    20 1   
    15     6    12 1   
    16     6    21 1   
    17     6    22 1   
    18     7    12 1   
    19     7    13 1   
    20     7    23 1   
    21     7    24 1   
    22     8    10 1   
    23     8    25 1   
    24     9    13 1   
    25     9    16 2   
    26    10    11 2   
    27    10    26 1   
    28    11    14 1   
    29    12    27 1   
    30    12    28 1   
    31    13    29 1   
@<TRIPOS>SUBSTRUCTURE
     1 RYG         1 TEMP              0 ****  ****    0 ROOT
