@<TRIPOS>MOLECULE
RYH
   29    30     1     0     0
SMALL
abcg2


@<TRIPOS>ATOM
      1 CAM         58.6960   -47.6720    25.7940 ca         1 RYH      -0.041500
      2 CAS         53.2450   -49.1750    23.6110 ca         1 RYH      -0.079500
      3 CAO         60.9600   -46.5710    26.1290 c          1 RYH       0.620700
      4 CAI         57.0590   -46.6620    24.3580 ca         1 RYH       0.179100
      5 CAK         59.1980   -45.6140    24.6630 ca         1 RYH      -0.041500
      6 OAC         51.0520   -50.7420    24.4220 o          1 RYH      -0.717500
      7 OAH         55.8510   -46.6160    23.7170 os         1 RYH      -0.258200
      8 CAR         54.3290   -48.3870    23.2410 ca         1 RYH      -0.148500
      9 CAL         59.5910   -46.6330    25.5370 ca         1 RYH      -0.206600
     10 CAJ         57.9430   -45.6190    24.0830 ca         1 RYH      -0.176000
     11 CAN         57.4380   -47.6980    25.2090 ca         1 RYH      -0.176000
     12 CAF         54.2320   -47.2720    25.3820 ca         1 RYH      -0.148500
     13 CAE         53.1550   -48.0720    25.7390 ca         1 RYH      -0.079500
     14 CAD         52.6460   -49.0320    24.8630 ca         1 RYH      -0.124600
     15 CAG         54.8140   -47.4420    24.1320 ca         1 RYH       0.045100
     16 OAQ         61.8590   -45.9080    25.6050 o          1 RYH      -0.629100
     17 NAP         61.1720   -47.2790    27.2590 nt         1 RYH      -0.609000
     18 H1          58.9770   -48.4980    26.4340 ha         1 RYH       0.116000
     19 H2          52.8540   -49.9150    22.9270 ha         1 RYH       0.135500
     20 H3          59.8880   -44.8090    24.4500 ha         1 RYH       0.116000
     21 H4          54.7980   -48.4950    22.2710 ha         1 RYH       0.103500
     22 H5          57.6320   -44.8250    23.4160 ha         1 RYH       0.136000
     23 H6          56.7640   -48.5200    25.4060 ha         1 RYH       0.136000
     24 H8          54.6230   -46.5250    26.0610 ha         1 RYH       0.103500
     25 H9          52.6910   -47.9540    26.7080 ha         1 RYH       0.135500
     26 H10         62.0810   -47.2370    27.6920 hn         1 RYH       0.310500
     27 H11         60.4240   -47.7120    27.7740 hn         1 RYH       0.310500
     28 OXT         50.9740   -49.7100    26.4110 o          1 RYH      -0.717500
     29 CAB         51.4570   -49.9020    25.2660 c          1 RYH       0.704600
@<TRIPOS>BOND
     1     1     9 ar  
     2     1    11 ar  
     3     1    18 1   
     4     2     8 ar  
     5     2    14 ar  
     6     2    19 1   
     7     3     9 1   
     8     3    16 2   
     9     3    17 1   
    10     4     7 1   
    11     4    10 ar  
    12     4    11 ar  
    13     5     9 ar  
    14     5    10 ar  
    15     5    20 1   
    16     6    29 1   
    17     7    15 1   
    18     8    15 ar  
    19     8    21 1   
    20    10    22 1   
    21    11    23 1   
    22    12    13 ar  
    23    12    15 ar  
    24    12    24 1   
    25    13    14 ar  
    26    13    25 1   
    27    14    29 1   
    28    17    26 1   
    29    17    27 1   
    30    28    29 1   
@<TRIPOS>SUBSTRUCTURE
     1 RYH         1 TEMP              0 ****  ****    0 ROOT
