@<TRIPOS>MOLECULE
RYH
   29    30     1     0     0
SMALL
No Charge or Current Charge


@<TRIPOS>ATOM
      1 CAM         58.8150   -47.6990    25.8030 ca         1 RYH      -0.041500
      2 CAS         52.9850   -49.1290    23.5540 ca         1 RYH      -0.079500
      3 CAO         60.8430   -46.2700    26.4370 c          1 RYH       0.620700
      4 CAI         57.1760   -46.8870    24.1900 ca         1 RYH       0.179100
      5 CAK         59.1040   -45.5160    24.7660 ca         1 RYH      -0.041500
      6 OAC         50.6670   -50.3520    24.6330 o          1 RYH      -0.717500
      7 OAH         56.0280   -47.0560    23.4480 os         1 RYH      -0.258200
      8 CAR         54.1480   -48.4930    23.0830 ca         1 RYH      -0.148500
      9 CAL         59.5660   -46.5070    25.6620 ca         1 RYH      -0.206600
     10 CAJ         57.9200   -45.7100    24.0340 ca         1 RYH      -0.176000
     11 CAN         57.6320   -47.8870    25.0680 ca         1 RYH      -0.176000
     12 CAF         54.4810   -47.4810    25.2670 ca         1 RYH      -0.148500
     13 CAE         53.3190   -48.1160    25.7400 ca         1 RYH      -0.079500
     14 CAD         52.5550   -48.9520    24.8910 ca         1 RYH      -0.124600
     15 CAG         54.9030   -47.6780    23.9390 ca         1 RYH       0.045100
     16 OAQ         61.5050   -45.2510    26.3240 o          1 RYH      -0.629100
     17 NAP         61.2640   -47.2290    27.2870 nt         1 RYH      -0.609000
     18 H1          59.1360   -48.4920    26.4750 ha         1 RYH       0.116000
     19 H2          52.4180   -49.7620    22.8730 ha         1 RYH       0.135500
     20 H3          59.6610   -44.5910    24.6320 ha         1 RYH       0.116000
     21 H4          54.4650   -48.6360    22.0530 ha         1 RYH       0.103500
     22 H5          57.5750   -44.9420    23.3450 ha         1 RYH       0.136000
     23 H6          57.0710   -48.8110    25.1790 ha         1 RYH       0.136000
     24 H8          55.0470   -46.8340    25.9330 ha         1 RYH       0.103500
     25 H9          53.0120   -47.9540    26.7710 ha         1 RYH       0.135500
     26 H10         62.1140   -47.0830    27.8100 hn         1 RYH       0.310500
     27 H11         60.7340   -48.0790    27.3980 hn         1 RYH       0.310500
     28 OXT         50.9610   -49.4580    26.5630 o          1 RYH      -0.717500
     29 CAB         51.2980   -49.6400    25.4010 c          1 RYH       0.704600
@<TRIPOS>BOND
     1     1     9 ar  
     2     1    11 ar  
     3     1    18 1   
     4     2     8 ar  
     5     2    14 ar  
     6     2    19 1   
     7     3     9 1   
     8     3    16 2   
     9     3    17 1   
    10     4     7 1   
    11     4    10 ar  
    12     4    11 ar  
    13     5     9 ar  
    14     5    10 ar  
    15     5    20 1   
    16     6    29 1   
    17     7    15 1   
    18     8    15 ar  
    19     8    21 1   
    20    10    22 1   
    21    11    23 1   
    22    12    13 ar  
    23    12    15 ar  
    24    12    24 1   
    25    13    14 ar  
    26    13    25 1   
    27    14    29 1   
    28    17    26 1   
    29    17    27 1   
    30    28    29 1   
@<TRIPOS>SUBSTRUCTURE
     1 RYH         1 TEMP              0 ****  ****    0 ROOT
