@<TRIPOS>MOLECULE
RYI
   39    42     1     0     0
SMALL
No Charge or Current Charge


@<TRIPOS>ATOM
      1 C17        -44.2170   -28.5340     5.8730 ca         1 RYI       0.185900
      2 C15        -46.4290   -29.0700     6.0840 ca         1 RYI       0.146500
      3 C13        -48.5990   -29.6990     5.5780 cc         1 RYI      -0.176100
      4 C12        -47.8550   -29.5990     4.4160 cd         1 RYI      -0.210200
      5 C11        -46.5020   -29.1980     4.7220 ca         1 RYI      -0.247800
      6 C10        -45.3680   -28.9700     3.9250 ca         1 RYI       0.436900
      7 C20        -45.1810   -31.6430     0.7130 c5         1 RYI      -0.281400
      8 C19        -44.1590   -29.4650     1.7650 c6         1 RYI       0.227800
      9 C03        -42.5030   -31.7320     0.4950 c5         1 RYI      -0.293400
     10 C04        -43.2430   -30.6710    -0.3800 c5         1 RYI      -0.062400
     11 C05        -44.5070   -30.2490     0.4470 c5         1 RYI      -0.057000
     12 C06        -45.4340   -29.3150    -0.3890 c6         1 RYI      -0.058400
     13 C07        -46.6920   -28.8870     0.4070 c6         1 RYI      -0.097400
     14 C08        -46.3040   -28.2090     1.7400 c6         1 RYI       0.223800
     15 N09        -45.3880   -29.0790     2.5200 nh         1 RYI      -0.786300
     16 N14        -47.6840   -29.3600     6.6000 na         1 RYI      -0.324400
     17 N16        -45.2780   -28.7320     6.6930 nb         1 RYI      -0.228000
     18 N18        -44.2020   -28.6380     4.5220 nb         1 RYI      -0.298000
     19 S02        -43.8310   -32.8180     1.1930 s6         1 RYI       1.066000
     20 H171       -43.2780   -28.2630     6.3510 h5         1 RYI       0.051100
     21 H131       -49.6380   -29.9740     5.7540 h4         1 RYI       0.218000
     22 H121       -48.2380   -29.8120     3.4200 ha         1 RYI       0.200000
     23 H202       -45.9160   -31.6320     1.5250 h1         1 RYI       0.112700
     24 H201       -45.6380   -32.0680    -0.1880 h1         1 RYI       0.112700
     25 H191       -43.5130   -30.0830     2.4040 h1         1 RYI       0.071700
     26 H192       -43.5780   -28.5650     1.5110 h1         1 RYI       0.071700
     27 H032       -41.8170   -32.3690    -0.0730 h1         1 RYI       0.110700
     28 H031       -41.9730   -31.2970     1.3490 h1         1 RYI       0.110700
     29 H042       -43.5320   -31.1000    -1.3490 hc         1 RYI       0.065200
     30 H041       -42.5950   -29.8160    -0.6070 hc         1 RYI       0.065200
     31 H062       -45.7420   -29.8190    -1.3160 hc         1 RYI       0.046200
     32 H061       -44.8760   -28.4200    -0.6990 hc         1 RYI       0.046200
     33 H072       -47.2990   -28.1970    -0.1940 hc         1 RYI       0.054200
     34 H071       -47.3260   -29.7610     0.6100 hc         1 RYI       0.054200
     35 H082       -45.8130   -27.2470     1.5270 h1         1 RYI       0.056700
     36 H081       -47.2190   -27.9830     2.3070 h1         1 RYI       0.056700
     37 H141       -47.9010   -29.3340     7.5920 hn         1 RYI       0.363000
     38 O01        -43.7040   -32.8810     2.6550 o          1 RYI      -0.518000
     39 O21        -43.9410   -34.0540     0.4090 o          1 RYI      -0.518000
@<TRIPOS>BOND
     1     1    17 ar  
     2     1    18 ar  
     3     1    20 1   
     4     2     5 ar  
     5     2    16 1   
     6     2    17 ar  
     7     3     4 2   
     8     3    16 1   
     9     3    21 1   
    10     4     5 1   
    11     4    22 1   
    12     5     6 ar  
    13     6    15 1   
    14     6    18 ar  
    15     7    11 1   
    16     7    19 1   
    17     7    23 1   
    18     7    24 1   
    19     8    11 1   
    20     8    15 1   
    21     8    25 1   
    22     8    26 1   
    23     9    10 1   
    24     9    19 1   
    25     9    27 1   
    26     9    28 1   
    27    10    11 1   
    28    10    29 1   
    29    10    30 1   
    30    11    12 1   
    31    12    13 1   
    32    12    31 1   
    33    12    32 1   
    34    13    14 1   
    35    13    33 1   
    36    13    34 1   
    37    14    15 1   
    38    14    35 1   
    39    14    36 1   
    40    16    37 1   
    41    19    38 2   
    42    19    39 2   
@<TRIPOS>SUBSTRUCTURE
     1 RYI         1 TEMP              0 ****  ****    0 ROOT
