@<TRIPOS>MOLECULE
RYI
   39    42     1     0     0
SMALL
abcg2


@<TRIPOS>ATOM
      1 C17        -44.3360   -29.6620     5.6840 ca         1 RYI       0.185900
      2 C15        -46.5260   -29.3510     5.8290 ca         1 RYI       0.146500
      3 C13        -48.7010   -29.0680     5.3980 cc         1 RYI      -0.176100
      4 C12        -48.0610   -28.9020     4.2010 cd         1 RYI      -0.210200
      5 C11        -46.6520   -29.0650     4.4480 ca         1 RYI      -0.247800
      6 C10        -45.4290   -29.0750     3.7210 ca         1 RYI       0.436900
      7 C20        -44.8890   -31.5490     1.2670 c5         1 RYI      -0.281400
      8 C19        -44.1370   -29.1530     1.6270 c6         1 RYI       0.227800
      9 C03        -42.2960   -31.3890     0.5380 c5         1 RYI      -0.293400
     10 C04        -43.2630   -30.5500    -0.2910 c5         1 RYI      -0.062400
     11 C05        -44.4990   -30.2270     0.5760 c5         1 RYI      -0.057000
     12 C06        -45.6510   -29.7050    -0.2950 c6         1 RYI      -0.058400
     13 C07        -46.8420   -29.2150     0.5320 c6         1 RYI      -0.097400
     14 C08        -46.3710   -28.2100     1.5780 c6         1 RYI       0.223800
     15 N09        -45.3130   -28.7840     2.3990 nh         1 RYI      -0.786300
     16 N14        -47.7700   -29.3300     6.3810 na         1 RYI      -0.324400
     17 N16        -45.3920   -29.6430     6.4860 nb         1 RYI      -0.228000
     18 N18        -44.2950   -29.4030     4.3770 nb         1 RYI      -0.298000
     19 S02        -43.3680   -32.5100     1.4580 s6         1 RYI       1.066000
     20 H171       -43.3840   -29.9120     6.1440 h5         1 RYI       0.051100
     21 H131       -49.7510   -29.0250     5.6340 h4         1 RYI       0.218000
     22 H121       -48.5620   -28.7090     3.2700 ha         1 RYI       0.200000
     23 H202       -45.3330   -31.4280     2.2520 h1         1 RYI       0.112700
     24 H201       -45.5450   -32.1510     0.6410 h1         1 RYI       0.112700
     25 H191       -43.3660   -29.4910     2.3100 h1         1 RYI       0.071700
     26 H192       -43.7650   -28.2680     1.1010 h1         1 RYI       0.071700
     27 H032       -41.6060   -31.9940    -0.0460 h1         1 RYI       0.110700
     28 H031       -41.7450   -30.8020     1.2700 h1         1 RYI       0.110700
     29 H042       -43.5810   -31.1120    -1.1710 hc         1 RYI       0.065200
     30 H041       -42.7840   -29.6340    -0.6380 hc         1 RYI       0.065200
     31 H062       -45.9590   -30.4880    -0.9920 hc         1 RYI       0.046200
     32 H061       -45.2670   -28.8730    -0.8940 hc         1 RYI       0.046200
     33 H072       -47.5800   -28.7450    -0.1210 hc         1 RYI       0.054200
     34 H071       -47.3340   -30.0550     1.0310 hc         1 RYI       0.054200
     35 H082       -45.9470   -27.3360     1.0700 h1         1 RYI       0.056700
     36 H081       -47.1770   -27.8520     2.2030 h1         1 RYI       0.056700
     37 H141       -47.9720   -29.5230     7.3490 hn         1 RYI       0.363000
     38 O01        -42.9670   -32.5860     2.8540 o          1 RYI      -0.518000
     39 O21        -43.4970   -33.7650     0.7320 o          1 RYI      -0.518000
@<TRIPOS>BOND
     1     1    17 ar  
     2     1    18 ar  
     3     1    20 1   
     4     2     5 ar  
     5     2    16 1   
     6     2    17 ar  
     7     3     4 2   
     8     3    16 1   
     9     3    21 1   
    10     4     5 1   
    11     4    22 1   
    12     5     6 ar  
    13     6    15 1   
    14     6    18 ar  
    15     7    11 1   
    16     7    19 1   
    17     7    23 1   
    18     7    24 1   
    19     8    11 1   
    20     8    15 1   
    21     8    25 1   
    22     8    26 1   
    23     9    10 1   
    24     9    19 1   
    25     9    27 1   
    26     9    28 1   
    27    10    11 1   
    28    10    29 1   
    29    10    30 1   
    30    11    12 1   
    31    12    13 1   
    32    12    31 1   
    33    12    32 1   
    34    13    14 1   
    35    13    33 1   
    36    13    34 1   
    37    14    15 1   
    38    14    35 1   
    39    14    36 1   
    40    16    37 1   
    41    19    38 2   
    42    19    39 2   
@<TRIPOS>SUBSTRUCTURE
     1 RYI         1 TEMP              0 ****  ****    0 ROOT
