@<TRIPOS>MOLECULE
RYJ
   27    27     1     0     0
SMALL
No Charge or Current Charge


@<TRIPOS>ATOM
      1 S           -4.4570     0.5430     0.1450 sy         1 RYJ       1.142600
      2 N            2.3830    -0.1980    -0.5570 ns         1 RYJ      -0.505900
      3 O            1.8260    -2.2170     0.3140 o          1 RYJ      -0.565100
      4 C1           0.0160    -0.6730    -0.0270 ca         1 RYJ      -0.101600
      5 C2          -1.7590     0.9790    -0.4120 ca         1 RYJ      -0.024500
      6 C3          -0.4030     0.6090    -0.4640 ca         1 RYJ      -0.093000
      7 C4          -2.7240     0.0770     0.0780 ca         1 RYJ      -0.297500
      8 C5          -0.9640    -1.5670     0.4630 ca         1 RYJ      -0.093000
      9 C6          -2.3190    -1.2000     0.5160 ca         1 RYJ      -0.024500
     10 F2'1         4.3990     1.2810     0.9690 f          1 RYJ      -0.112000
     11 F2'2         5.9350    -0.2070     0.5090 f          1 RYJ      -0.112000
     12 F2'3         4.2050    -0.7640     1.7240 f          1 RYJ      -0.112000
     13 C8           3.8440    -0.4170    -0.6240 c3         1 RYJ       0.033000
     14 O1S         -5.1620    -0.2360     1.1630 o          1 RYJ      -0.523500
     15 C9           4.6040    -0.0220     0.6660 c3         1 RYJ       0.279000
     16 O2S         -4.5900     1.9930     0.0180 o          1 RYJ      -0.523500
     17 N3S         -5.0020    -0.0280    -1.2870 n8         1 RYJ      -1.003100
     18 HN           2.0170     0.6970    -0.8560 hn         1 RYJ       0.329500
     19 H2          -2.0500     1.9720    -0.7540 ha         1 RYJ       0.141500
     20 H3           0.3080     1.3360    -0.8470 ha         1 RYJ       0.133000
     21 H5          -0.6780    -2.5590     0.8070 ha         1 RYJ       0.133000
     22 H6          -3.0500    -1.9120     0.8960 ha         1 RYJ       0.141500
     23 H1           4.0440    -1.4750    -0.8430 h1         1 RYJ       0.092700
     24 H1'A         4.2480     0.1690    -1.4610 h1         1 RYJ       0.092700
     25 HN3S        -5.4260     0.8090    -1.6790 hn         1 RYJ       0.479000
     26 HN3A        -4.1380    -0.1330    -1.8140 hn         1 RYJ       0.479000
     27 C7           1.4690    -1.1100    -0.0650 c          1 RYJ       0.613700
@<TRIPOS>BOND
     1     1     7 1   
     2     1    14 2   
     3     1    16 2   
     4     1    17 1   
     5     2    13 1   
     6     2    18 1   
     7     2    27 1   
     8     3    27 2   
     9     4     6 ar  
    10     4     8 ar  
    11     4    27 1   
    12     5     6 ar  
    13     5     7 ar  
    14     5    19 1   
    15     6    20 1   
    16     7     9 ar  
    17     8     9 ar  
    18     8    21 1   
    19     9    22 1   
    20    10    15 1   
    21    11    15 1   
    22    12    15 1   
    23    13    15 1   
    24    13    23 1   
    25    13    24 1   
    26    17    25 1   
    27    17    26 1   
@<TRIPOS>SUBSTRUCTURE
     1 RYJ         1 TEMP              0 ****  ****    0 ROOT
