@<TRIPOS>MOLECULE
RYJ
   27    27     1     0     0
SMALL
bcc


@<TRIPOS>ATOM
      1 S           -4.3720     0.4840     0.0990 sy         1 RYJ       1.284200
      2 N            2.3090    -0.3430    -0.5460 ns         1 RYJ      -0.572900
      3 O            1.7980    -2.0850     0.8020 o          1 RYJ      -0.565100
      4 C1           0.0220    -0.6720     0.1270 ca         1 RYJ      -0.101600
      5 C2          -1.6880     1.0220    -0.0030 ca         1 RYJ      -0.042500
      6 C3          -0.3500     0.6620    -0.0080 ca         1 RYJ      -0.111000
      7 C4          -2.6520     0.0340     0.1260 ca         1 RYJ      -0.297500
      8 C5          -0.9600    -1.6480     0.2790 ca         1 RYJ      -0.111000
      9 C6          -2.3000    -1.3020     0.2690 ca         1 RYJ      -0.042500
     10 F2'1         4.3020     1.5610     0.1520 f          1 RYJ      -0.233300
     11 F2'2         5.7950     0.0120     0.3120 f          1 RYJ      -0.233300
     12 F2'3         4.0980     0.0290     1.6450 f          1 RYJ      -0.233300
     13 C8           3.7190    -0.6020    -0.6070 c3         1 RYJ       0.033000
     14 O1S         -5.1090    -0.5500     0.8050 o          1 RYJ      -0.594300
     15 C9           4.4810     0.2530     0.3820 c3         1 RYJ       0.642900
     16 O2S         -4.4710     1.8710     0.5180 o          1 RYJ      -0.594300
     17 N3S         -4.8700     0.4270    -1.4620 n8         1 RYJ      -0.892700
     18 HN           1.9450     0.3780    -1.1470 hn         1 RYJ       0.329500
     19 H2          -1.9610     2.0650    -0.0890 ha         1 RYJ       0.159500
     20 H3           0.3940     1.4440    -0.0840 ha         1 RYJ       0.151000
     21 H5          -0.6800    -2.6850     0.4030 ha         1 RYJ       0.151000
     22 H6          -3.0520    -2.0700     0.3810 ha         1 RYJ       0.159500
     23 H1           3.9210    -1.6530    -0.3980 h1         1 RYJ       0.092700
     24 H1'A         4.0850    -0.3860    -1.6110 h1         1 RYJ       0.092700
     25 HN3S        -4.4230     1.1050    -2.0690 hn         1 RYJ       0.423800
     26 HN3A        -4.8590    -0.5020    -1.8670 hn         1 RYJ       0.423800
     27 C7           1.4550    -1.1030     0.1690 c          1 RYJ       0.680700
@<TRIPOS>BOND
     1     1     7 1   
     2     1    14 2   
     3     1    16 2   
     4     1    17 1   
     5     2    13 1   
     6     2    18 1   
     7     2    27 1   
     8     3    27 2   
     9     4     6 ar  
    10     4     8 ar  
    11     4    27 1   
    12     5     6 ar  
    13     5     7 ar  
    14     5    19 1   
    15     6    20 1   
    16     7     9 ar  
    17     8     9 ar  
    18     8    21 1   
    19     9    22 1   
    20    10    15 1   
    21    11    15 1   
    22    12    15 1   
    23    13    15 1   
    24    13    23 1   
    25    13    24 1   
    26    17    25 1   
    27    17    26 1   
@<TRIPOS>SUBSTRUCTURE
     1 RYJ         1 TEMP              0 ****  ****    0 ROOT
