@<TRIPOS>MOLECULE
RYM
   29    31     1     0     0
SMALL
No Charge or Current Charge


@<TRIPOS>ATOM
      1 N1          14.5520    22.5920    -1.4430 nc         1 RYM      -0.568100
      2 N3           7.8640    27.1820     3.2190 n1         1 RYM      -0.443000
      3 C4          12.3870    22.1780    -0.8530 ca         1 RYM      -0.078200
      4 C5          13.2650    22.3350    -1.8900 ca         1 RYM       0.065400
      5 C6          12.8230    22.2320    -3.2180 ca         1 RYM      -0.048000
      6 C7          14.4040    22.5820    -0.0990 cd         1 RYM       0.416700
      7 C10         10.3680    23.0260     2.7650 ca         1 RYM      -0.097500
      8 C13         10.7580    25.6630     1.8780 ca         1 RYM      -0.070500
      9 C1          11.4580    21.9640    -3.4590 ca         1 RYM      -0.134000
     10 C11          9.4230    24.0200     3.0770 ca         1 RYM      -0.070500
     11 C12          9.6140    25.3420     2.6330 ca         1 RYM      -0.007000
     12 C14         11.7010    24.6680     1.5670 ca         1 RYM      -0.097500
     13 C2          10.5600    21.8040    -2.3780 ca         1 RYM      -0.093000
     14 C3          11.0230    21.9110    -1.0510 ca         1 RYM      -0.111000
     15 C9          11.5110    23.3410     2.0040 ca         1 RYM      -0.094300
     16 N2          13.0850    22.3320     0.3130 na         1 RYM      -0.188600
     17 H1          13.5200    22.3570    -4.0430 ha         1 RYM       0.129000
     18 H2          15.1940    22.7470     0.6240 h5         1 RYM       0.059800
     19 H3          12.0560    21.2620     1.7850 h1         1 RYM       0.067700
     20 H4          13.3510    22.3000     2.3940 h1         1 RYM       0.067700
     21 H5          10.2070    22.0080     3.1150 ha         1 RYM       0.123000
     22 H6          10.9180    26.6820     1.5310 ha         1 RYM       0.130000
     23 H7          11.0950    21.8800    -4.4810 ha         1 RYM       0.114000
     24 H8           8.5440    23.7600     3.6640 ha         1 RYM       0.130000
     25 H9          12.5800    24.9350     0.9840 ha         1 RYM       0.123000
     26 H10          9.5090    21.5990    -2.5700 ha         1 RYM       0.112000
     27 H11         10.3410    21.7920    -0.2120 ha         1 RYM       0.117000
     28 C8          12.5260    22.2470     1.6730 c3         1 RYM       0.127900
     29 C15          8.6480    26.3580     2.9510 cg         1 RYM       0.319000
@<TRIPOS>BOND
     1     1     4 1   
     2     1     6 2   
     3     2    29 3   
     4     3     4 ar  
     5     3    14 ar  
     6     3    16 1   
     7     4     5 ar  
     8     5     9 ar  
     9     5    17 1   
    10     6    16 1   
    11     6    18 1   
    12     7    10 ar  
    13     7    15 ar  
    14     7    21 1   
    15     8    11 ar  
    16     8    12 ar  
    17     8    22 1   
    18     9    13 ar  
    19     9    23 1   
    20    10    11 ar  
    21    10    24 1   
    22    11    29 1   
    23    12    15 ar  
    24    12    25 1   
    25    13    14 ar  
    26    13    26 1   
    27    14    27 1   
    28    15    28 1   
    29    16    28 1   
    30    19    28 1   
    31    20    28 1   
@<TRIPOS>SUBSTRUCTURE
     1 RYM         1 TEMP              0 ****  ****    0 ROOT
