@<TRIPOS>MOLECULE
RYM
   29    31     1     0     0
SMALL
abcg2


@<TRIPOS>ATOM
      1 N1          14.4170    22.7610    -1.3850 nc         1 RYM      -0.568100
      2 N3           7.9920    27.1930     3.1970 n1         1 RYM      -0.443000
      3 C4          12.2930    22.1510    -0.8320 ca         1 RYM      -0.078200
      4 C5          13.1870    22.4000    -1.8860 ca         1 RYM       0.065400
      5 C6          12.7590    22.2590    -3.2060 ca         1 RYM      -0.048000
      6 C7          14.2690    22.7320    -0.0930 cd         1 RYM       0.416700
      7 C10         10.3210    23.0310     2.5780 ca         1 RYM      -0.097500
      8 C13         10.9160    25.6890     2.0320 ca         1 RYM      -0.070500
      9 C1          11.4480    21.8770    -3.4240 ca         1 RYM      -0.134000
     10 C11          9.4000    24.0140     2.8990 ca         1 RYM      -0.070500
     11 C12          9.6990    25.3460     2.6220 ca         1 RYM      -0.007000
     12 C14         11.8260    24.6970     1.7210 ca         1 RYM      -0.097500
     13 C2          10.5690    21.6330    -2.3570 ca         1 RYM      -0.093000
     14 C3          10.9740    21.7660    -1.0400 ca         1 RYM      -0.111000
     15 C9          11.5380    23.3610     1.9910 ca         1 RYM      -0.094300
     16 N2          13.0230    22.3720     0.3100 na         1 RYM      -0.188600
     17 H1          13.4350    22.4450    -4.0310 ha         1 RYM       0.129000
     18 H2          15.0410    22.9600     0.6290 h5         1 RYM       0.059800
     19 H3          12.0980    21.2960     1.8280 h1         1 RYM       0.067700
     20 H4          13.4000    22.3540     2.3320 h1         1 RYM       0.067700
     21 H5          10.0850    21.9950     2.7840 ha         1 RYM       0.123000
     22 H6          11.1470    26.7250     1.8220 ha         1 RYM       0.130000
     23 H7          11.0890    21.7600    -4.4380 ha         1 RYM       0.114000
     24 H8           8.4560    23.7490     3.3540 ha         1 RYM       0.130000
     25 H9          12.7680    24.9730     1.2630 ha         1 RYM       0.123000
     26 H10          9.5520    21.3340    -2.5710 ha         1 RYM       0.112000
     27 H11         10.2900    21.5730    -0.2240 ha         1 RYM       0.117000
     28 C8          12.5380    22.2810     1.6660 c3         1 RYM       0.127900
     29 C15          8.7550    26.3670     2.9430 cg         1 RYM       0.319000
@<TRIPOS>BOND
     1     1     4 1   
     2     1     6 2   
     3     2    29 3   
     4     3     4 ar  
     5     3    14 ar  
     6     3    16 1   
     7     4     5 ar  
     8     5     9 ar  
     9     5    17 1   
    10     6    16 1   
    11     6    18 1   
    12     7    10 ar  
    13     7    15 ar  
    14     7    21 1   
    15     8    11 ar  
    16     8    12 ar  
    17     8    22 1   
    18     9    13 ar  
    19     9    23 1   
    20    10    11 ar  
    21    10    24 1   
    22    11    29 1   
    23    12    15 ar  
    24    12    25 1   
    25    13    14 ar  
    26    13    26 1   
    27    14    27 1   
    28    15    28 1   
    29    16    28 1   
    30    19    28 1   
    31    20    28 1   
@<TRIPOS>SUBSTRUCTURE
     1 RYM         1 TEMP              0 ****  ****    0 ROOT
