@<TRIPOS>MOLECULE
RYN
   32    32     1     0     0
SMALL
abcg2


@<TRIPOS>ATOM
      1 N1          -1.3910     0.3750     0.0250 nb         1 RYN      -0.336000
      2 C2          -0.3000     1.1070     0.0680 ca         1 RYN       0.315300
      3 N3           0.9510     0.6830     0.1140 nb         1 RYN      -0.304000
      4 C4           1.0720    -0.6540     0.1040 ca         1 RYN       0.438900
      5 N5           0.0510    -1.5110     0.0560 nb         1 RYN      -0.369000
      6 C6          -1.1570    -0.9500     0.0230 ca         1 RYN       0.441900
      7 N7           2.3030    -1.1730     0.1600 nu         1 RYN      -0.917100
      8 C8           3.5370    -0.4060     0.1310 c3         1 RYN       0.250500
      9 C9           4.6510    -1.2520     0.7290 c3         1 RYN      -0.110100
     10 C10          3.8800     0.0610    -1.2790 c3         1 RYN      -0.110100
     11 N11         -2.2190    -1.7570    -0.0200 nu         1 RYN      -0.922100
     12 C12         -3.5930    -1.2960    -0.0150 c3         1 RYN       0.243800
     13 C13         -4.5400    -2.4750    -0.1300 c3         1 RYN      -0.115100
     14 S21         -0.4490     2.8530     0.0640 ss         1 RYN      -0.316300
     15 C22         -2.2340     3.0920    -0.0250 c3         1 RYN       0.024900
     16 HN7          2.3650    -2.1770     0.0900 hn         1 RYN       0.501000
     17 H9           4.8370    -2.1450     0.1290 hc         1 RYN       0.043200
     18 H9A          5.5780    -0.6810     0.7660 hc         1 RYN       0.043200
     19 H10          3.0790     0.6710    -1.6940 hc         1 RYN       0.043200
     20 H10A         4.7900     0.6640    -1.2700 hc         1 RYN       0.043200
     21 H10B         4.0460    -0.7890    -1.9420 hc         1 RYN       0.043200
     22 HN11        -2.0390    -2.7480     0.0120 hn         1 RYN       0.506000
     23 H12         -3.8010    -0.7410     0.9020 h1         1 RYN       0.051700
     24 H12A        -3.7520    -0.6030    -0.8430 h1         1 RYN       0.051700
     25 H13         -4.4240    -3.1630     0.7080 hc         1 RYN       0.043700
     26 H13A        -5.5700    -2.1220    -0.1300 hc         1 RYN       0.043700
     27 H13B        -4.3780    -3.0300    -1.0550 hc         1 RYN       0.043700
     28 H22         -2.6430     2.6510    -0.9300 h1         1 RYN       0.068033
     29 H22A        -2.7330     2.6730     0.8440 h1         1 RYN       0.068033
     30 H22B        -2.3920     4.1690    -0.0460 h1         1 RYN       0.068033
     31 H16          3.3930     0.4710     0.7640 h1         1 RYN       0.079700
     32 H17          4.4090    -1.5670     1.7450 hc         1 RYN       0.043200
@<TRIPOS>BOND
     1     1     2 ar  
     2     1     6 ar  
     3     2     3 ar  
     4     2    14 1   
     5     3     4 ar  
     6     4     5 ar  
     7     4     7 1   
     8     5     6 ar  
     9     6    11 1   
    10     7     8 1   
    11     7    16 1   
    12     8     9 1   
    13     8    10 1   
    14     8    31 1   
    15     9    17 1   
    16     9    18 1   
    17     9    32 1   
    18    10    19 1   
    19    10    20 1   
    20    10    21 1   
    21    11    12 1   
    22    11    22 1   
    23    12    13 1   
    24    12    23 1   
    25    12    24 1   
    26    13    25 1   
    27    13    26 1   
    28    13    27 1   
    29    14    15 1   
    30    15    28 1   
    31    15    29 1   
    32    15    30 1   
@<TRIPOS>SUBSTRUCTURE
     1 RYN         1 TEMP              0 ****  ****    0 ROOT
