@<TRIPOS>MOLECULE
RYN
   32    32     1     0     0
SMALL
No Charge or Current Charge


@<TRIPOS>ATOM
      1 N1          -1.4050     0.4810     0.0350 nb         1 RYN      -0.336000
      2 C2          -0.3060     1.2600     0.0910 ca         1 RYN       0.315300
      3 N3           0.9550     0.7930     0.1400 nb         1 RYN      -0.304000
      4 C4           1.0630    -0.5460     0.1270 ca         1 RYN       0.438900
      5 N5           0.0470    -1.4140     0.0780 nb         1 RYN      -0.369000
      6 C6          -1.1600    -0.8390     0.0330 ca         1 RYN       0.441900
      7 N7           2.3220    -1.1140     0.1800 nu         1 RYN      -0.917100
      8 C8           3.6220    -0.4320     0.1340 c3         1 RYN       0.250500
      9 C9           4.6970    -1.3600     0.7290 c3         1 RYN      -0.110100
     10 C10          3.9520    -0.0220    -1.3160 c3         1 RYN      -0.110100
     11 N11         -2.2320    -1.7050    -0.0210 nu         1 RYN      -0.922100
     12 C12         -3.6580    -1.3550    -0.0780 c3         1 RYN       0.243800
     13 C13         -4.5160    -2.6290    -0.1260 c3         1 RYN      -0.115100
     14 S21         -0.5130     3.0370     0.1010 ss         1 RYN      -0.316300
     15 C22         -2.3460     3.2840     0.0180 c3         1 RYN       0.024900
     16 HN7          2.3260    -2.1330     0.1660 hn         1 RYN       0.501000
     17 H9           4.7880    -2.2850     0.1470 hc         1 RYN       0.043200
     18 H9A          5.6740    -0.8610     0.7320 hc         1 RYN       0.043200
     19 H10          3.1940     0.6640    -1.7100 hc         1 RYN       0.043200
     20 H10A         4.9220     0.4880    -1.3580 hc         1 RYN       0.043200
     21 H10B         3.9970    -0.9000    -1.9710 hc         1 RYN       0.043200
     22 HN11        -1.9840    -2.6940    -0.0210 hn         1 RYN       0.506000
     23 H12         -3.9390    -0.7640     0.8060 h1         1 RYN       0.051700
     24 H12A        -3.8640    -0.7470    -0.9700 h1         1 RYN       0.051700
     25 H13         -4.3520    -3.2440     0.7670 hc         1 RYN       0.043700
     26 H13A        -5.5800    -2.3650    -0.1680 hc         1 RYN       0.043700
     27 H13B        -4.2770    -3.2270    -1.0140 hc         1 RYN       0.043700
     28 H22         -2.7420     2.8350    -0.9010 h1         1 RYN       0.068033
     29 H22A        -2.8250     2.8160     0.8870 h1         1 RYN       0.068033
     30 H22B        -2.5740     4.3580     0.0190 h1         1 RYN       0.068033
     31 H16          3.5910     0.4760     0.7560 h1         1 RYN       0.079700
     32 H17          4.4510    -1.6230     1.7650 hc         1 RYN       0.043200
@<TRIPOS>BOND
     1     1     2 ar  
     2     1     6 ar  
     3     2     3 ar  
     4     2    14 1   
     5     3     4 ar  
     6     4     5 ar  
     7     4     7 1   
     8     5     6 ar  
     9     6    11 1   
    10     7     8 1   
    11     7    16 1   
    12     8     9 1   
    13     8    10 1   
    14     8    31 1   
    15     9    17 1   
    16     9    18 1   
    17     9    32 1   
    18    10    19 1   
    19    10    20 1   
    20    10    21 1   
    21    11    12 1   
    22    11    22 1   
    23    12    13 1   
    24    12    23 1   
    25    12    24 1   
    26    13    25 1   
    27    13    26 1   
    28    13    27 1   
    29    14    15 1   
    30    15    28 1   
    31    15    29 1   
    32    15    30 1   
@<TRIPOS>SUBSTRUCTURE
     1 RYN         1 TEMP              0 ****  ****    0 ROOT
