@<TRIPOS>MOLECULE
RYP
   19    19     1     0     0
SMALL
abcg2


@<TRIPOS>ATOM
      1 C01         15.2480    19.7240     6.8500 c3         1 RYP       0.139100
      2 C03         13.8680    19.1960     8.7570 c3         1 RYP       0.199100
      3 C04         14.4180    20.2270     9.7040 ca         1 RYP      -0.046300
      4 C05         15.5940    19.9900    10.4120 ca         1 RYP      -0.152000
      5 C06         16.0600    20.9580    11.2850 ca         1 RYP       0.329400
      6 C08         14.3260    22.3440    10.8210 ca         1 RYP       0.329400
      7 C09         13.7810    21.4410     9.9180 ca         1 RYP      -0.152000
      8 N02         14.8790    18.7250     7.8330 n7         1 RYP      -0.856400
      9 N07         15.4450    22.1190    11.4960 nb         1 RYP      -0.666000
     10 H1          15.9210    19.2850     6.1140 h1         1 RYP       0.032367
     11 H2          14.3920    20.1570     6.3120 h1         1 RYP       0.032367
     12 H3          15.7800    20.5470     7.3290 h1         1 RYP       0.032367
     13 H4          12.9830    19.6140     8.2520 h1         1 RYP       0.039700
     14 H5          13.5150    18.3410     9.3400 h1         1 RYP       0.039700
     15 H6          16.1410    19.0650    10.2850 ha         1 RYP       0.126500
     16 H7          16.9760    20.7900    11.8420 h4         1 RYP       0.017600
     17 H8          13.8350    23.2950    10.9980 h4         1 RYP       0.017600
     18 H9          12.8670    21.6870     9.3930 ha         1 RYP       0.126500
     19 H10         14.5210    17.9080     7.3570 hn         1 RYP       0.412000
@<TRIPOS>BOND
     1     1     8 1   
     2     1    10 1   
     3     1    11 1   
     4     1    12 1   
     5     2     3 1   
     6     2     8 1   
     7     2    13 1   
     8     2    14 1   
     9     3     4 ar  
    10     3     7 ar  
    11     4     5 ar  
    12     4    15 1   
    13     5     9 ar  
    14     5    16 1   
    15     6     7 ar  
    16     6     9 ar  
    17     6    17 1   
    18     7    18 1   
    19     8    19 1   
@<TRIPOS>SUBSTRUCTURE
     1 RYP         1 TEMP              0 ****  ****    0 ROOT
