@<TRIPOS>MOLECULE
RYP
   19    19     1     0     0
SMALL
No Charge or Current Charge


@<TRIPOS>ATOM
      1 C01         15.1100    19.8870     6.7790 c3         1 RYP       0.139100
      2 C03         13.9450    19.0490     8.8320 c3         1 RYP       0.199100
      3 C04         14.4790    20.1400     9.7580 ca         1 RYP      -0.046300
      4 C05         15.5510    19.8890    10.6330 ca         1 RYP      -0.152000
      5 C06         16.0150    20.9190    11.4690 ca         1 RYP       0.329400
      6 C08         14.4420    22.4030    10.6370 ca         1 RYP       0.329400
      7 C09         13.9180    21.4300     9.7690 ca         1 RYP      -0.152000
      8 N02         14.8740    18.7670     7.7150 n7         1 RYP      -0.856400
      9 N07         15.4740    22.1610    11.4790 nb         1 RYP      -0.666000
     10 H1          15.7910    19.5800     5.9740 h1         1 RYP       0.032367
     11 H2          14.1690    20.2200     6.3200 h1         1 RYP       0.032367
     12 H3          15.5630    20.7450     7.2940 h1         1 RYP       0.032367
     13 H4          12.9620    19.3500     8.4440 h1         1 RYP       0.039700
     14 H5          13.7900    18.1380     9.4260 h1         1 RYP       0.039700
     15 H6          16.0250    18.9130    10.6650 ha         1 RYP       0.126500
     16 H7          16.8450    20.7460    12.1530 h4         1 RYP       0.017600
     17 H8          14.0230    23.4080    10.6610 h4         1 RYP       0.017600
     18 H9          13.0890    21.6840     9.1140 ha         1 RYP       0.126500
     19 H10         14.4840    17.9830     7.1750 hn         1 RYP       0.412000
@<TRIPOS>BOND
     1     1     8 1   
     2     1    10 1   
     3     1    11 1   
     4     1    12 1   
     5     2     3 1   
     6     2     8 1   
     7     2    13 1   
     8     2    14 1   
     9     3     4 ar  
    10     3     7 ar  
    11     4     5 ar  
    12     4    15 1   
    13     5     9 ar  
    14     5    16 1   
    15     6     7 ar  
    16     6     9 ar  
    17     6    17 1   
    18     7    18 1   
    19     8    19 1   
@<TRIPOS>SUBSTRUCTURE
     1 RYP         1 TEMP              0 ****  ****    0 ROOT
