@<TRIPOS>MOLECULE
RYQ
   29    31     1     0     0
SMALL
abcg2


@<TRIPOS>ATOM
      1 C16        -45.7580   -29.4540     3.6850 ca         1 RYQ       0.167500
      2 C17        -43.1540   -28.1070     0.9800 cc         1 RYQ      -0.222000
      3 C13        -44.7180   -29.1420     5.6220 ca         1 RYQ       0.412900
      4 C10        -47.0370   -29.0640     5.6500 ca         1 RYQ       0.469900
      5 C02        -44.6780   -26.4970    -0.0480 cc         1 RYQ       0.451700
      6 C04        -44.4460   -28.5130     0.8610 cd         1 RYQ       0.252300
      7 C07        -47.3640   -29.6710     2.1910 cc         1 RYQ       0.412700
      8 C09        -47.0170   -29.3120     4.2640 ca         1 RYQ      -0.134600
      9 N03        -45.2950   -27.5960     0.2790 nd         1 RYQ      -0.642000
     10 N06        -45.9950   -29.6920     2.3530 na         1 RYQ      -0.292300
     11 N08        -48.0130   -29.4520     3.3080 nd         1 RYQ      -0.548100
     12 N11        -48.1850   -28.9350     6.3470 nv         1 RYQ      -1.058900
     13 N12        -45.8710   -28.9790     6.3050 nb         1 RYQ      -0.347000
     14 N14        -43.5730   -29.0950     6.3670 nv         1 RYQ      -1.048900
     15 N15        -44.5800   -29.3770     4.3090 nb         1 RYQ      -0.286000
     16 S18        -42.9770   -26.5190     0.3410 ss         1 RYQ      -0.058400
     17 H171       -42.3220   -28.6430     1.4080 h4         1 RYQ       0.167000
     18 H011       -46.3770   -25.5330    -0.8590 hc         1 RYQ       0.060033
     19 H012       -45.2330   -24.4290    -0.0720 hc         1 RYQ       0.060033
     20 H013       -44.8550   -25.0960    -1.6590 hc         1 RYQ       0.060033
     21 H052       -45.4640   -30.3530     0.4720 h1         1 RYQ       0.074200
     22 H051       -44.1860   -30.4630     1.6870 h1         1 RYQ       0.074200
     23 H071       -47.8090   -29.8290     1.2210 h5         1 RYQ       0.068800
     24 H111       -48.1390   -28.5980     7.2950 hn         1 RYQ       0.498500
     25 H112       -49.0530   -28.8220     5.8490 hn         1 RYQ       0.498500
     26 H142       -42.7100   -28.9530     5.8680 hn         1 RYQ       0.483000
     27 H141       -43.6390   -28.6690     7.2770 hn         1 RYQ       0.483000
     28 C05        -44.9910   -29.8370     1.3070 c3         1 RYQ       0.073300
     29 C01        -45.3220   -25.3190    -0.6980 c3         1 RYQ      -0.129400
@<TRIPOS>BOND
     1     1     8 ar  
     2     1    10 1   
     3     1    15 ar  
     4     2     6 2   
     5     2    16 1   
     6     2    17 1   
     7     3    13 ar  
     8     3    14 1   
     9     3    15 ar  
    10     4     8 ar  
    11     4    12 1   
    12     4    13 ar  
    13     5     9 2   
    14     5    16 1   
    15     5    29 1   
    16     6     9 1   
    17     6    28 1   
    18     7    10 1   
    19     7    11 2   
    20     7    23 1   
    21     8    11 1   
    22    10    28 1   
    23    12    24 1   
    24    12    25 1   
    25    14    26 1   
    26    14    27 1   
    27    18    29 1   
    28    19    29 1   
    29    20    29 1   
    30    21    28 1   
    31    22    28 1   
@<TRIPOS>SUBSTRUCTURE
     1 RYQ         1 TEMP              0 ****  ****    0 ROOT
