@<TRIPOS>MOLECULE
RYQ
   29    31     1     0     0
SMALL
No Charge or Current Charge


@<TRIPOS>ATOM
      1 C16        -45.7540   -29.4880     3.7670 ca         1 RYQ       0.167500
      2 C17        -43.5950   -27.4710     1.4900 cc         1 RYQ      -0.222000
      3 C13        -44.6780   -29.4880     5.7660 ca         1 RYQ       0.412900
      4 C10        -46.9400   -29.3330     5.8260 ca         1 RYQ       0.469900
      5 C02        -44.6550   -26.4080    -0.3990 cc         1 RYQ       0.451700
      6 C04        -44.6020   -28.2040     0.9060 cd         1 RYQ       0.252300
      7 C07        -47.4640   -29.4040     2.3190 cc         1 RYQ       0.412700
      8 C09        -46.9580   -29.3810     4.4180 ca         1 RYQ      -0.134600
      9 N03        -45.2130   -27.5910    -0.1810 nd         1 RYQ      -0.642000
     10 N06        -46.0780   -29.5100     2.4420 na         1 RYQ      -0.292300
     11 N08        -48.0460   -29.3270     3.5330 nd         1 RYQ      -0.548100
     12 N11        -48.0720   -29.2230     6.5680 nv         1 RYQ      -1.058900
     13 N12        -45.7900   -29.3830     6.5120 nb         1 RYQ      -0.347000
     14 N14        -43.5160   -29.5380     6.4510 nv         1 RYQ      -1.048900
     15 N15        -44.5810   -29.5430     4.4250 nb         1 RYQ      -0.286000
     16 S18        -43.3610   -25.9500     0.6770 ss         1 RYQ      -0.058400
     17 H171       -42.9840   -27.7280     2.3450 h4         1 RYQ       0.167000
     18 H011       -46.0530   -25.8000    -1.9200 hc         1 RYQ       0.060033
     19 H012       -45.1830   -24.4650    -1.1430 hc         1 RYQ       0.060033
     20 H013       -44.3490   -25.5020    -2.3180 hc         1 RYQ       0.060033
     21 H052       -45.4940   -30.1020     0.5130 h1         1 RYQ       0.074200
     22 H051       -44.2020   -30.1350     1.7170 h1         1 RYQ       0.074200
     23 H071       -47.9660   -29.3850     1.3580 h5         1 RYQ       0.068800
     24 H111       -47.9810   -28.8980     7.5260 hn         1 RYQ       0.498500
     25 H112       -48.9210   -28.9600     6.0740 hn         1 RYQ       0.498500
     26 H142       -42.6480   -29.3960     5.9410 hn         1 RYQ       0.483000
     27 H141       -43.5200   -29.2810     7.4350 hn         1 RYQ       0.483000
     28 C05        -45.0700   -29.5620     1.3680 c3         1 RYQ       0.073300
     29 C01        -45.0850   -25.4940    -1.5070 c3         1 RYQ      -0.129400
@<TRIPOS>BOND
     1     1     8 ar  
     2     1    10 1   
     3     1    15 ar  
     4     2     6 2   
     5     2    16 1   
     6     2    17 1   
     7     3    13 ar  
     8     3    14 1   
     9     3    15 ar  
    10     4     8 ar  
    11     4    12 1   
    12     4    13 ar  
    13     5     9 2   
    14     5    16 1   
    15     5    29 1   
    16     6     9 1   
    17     6    28 1   
    18     7    10 1   
    19     7    11 2   
    20     7    23 1   
    21     8    11 1   
    22    10    28 1   
    23    12    24 1   
    24    12    25 1   
    25    14    26 1   
    26    14    27 1   
    27    18    29 1   
    28    19    29 1   
    29    20    29 1   
    30    21    28 1   
    31    22    28 1   
@<TRIPOS>SUBSTRUCTURE
     1 RYQ         1 TEMP              0 ****  ****    0 ROOT
