@<TRIPOS>MOLECULE
RYR
   51    53     1     0     0
SMALL
No Charge or Current Charge


@<TRIPOS>ATOM
      1 C19        -22.7240    21.0640     1.8500 ca         1 RYR      -0.025500
      2 C15        -27.1110    18.4410    -1.1090 c3         1 RYR      -0.096100
      3 C17        -24.9790    20.6620     0.9970 ca         1 RYR       0.160100
      4 C18        -23.6110    20.3160     1.0570 ca         1 RYR      -0.169000
      5 C20        -23.1860    22.1670     2.5990 ca         1 RYR      -0.225300
      6 C14        -25.7330    18.7270    -0.4650 c3         1 RYR       0.110000
      7 C13        -24.6600    18.7940    -1.6080 c          1 RYR       0.580100
      8 C10        -23.0840    21.9490    -2.9110 ca         1 RYR      -0.160000
      9 C11        -23.3870    20.5800    -2.9570 ca         1 RYR      -0.026000
     10 C04        -20.7680    17.4840    -7.1390 cc         1 RYR      -0.285900
     11 C05        -21.4680    18.0640    -6.1040 cd         1 RYR      -0.098000
     12 C06        -21.2530    19.4700    -5.9400 cd         1 RYR      -0.066000
     13 C07        -21.8840    20.3190    -4.8930 ca         1 RYR       0.019000
     14 C08        -21.5930    21.7000    -4.8150 ca         1 RYR      -0.124000
     15 C09        -22.1890    22.5080    -3.8340 ca         1 RYR      -0.081000
     16 C21        -22.2140    22.9870     3.4540 c3         1 RYR       0.348300
     17 C25        -24.5500    22.5190     2.5240 ca         1 RYR      -0.025500
     18 C26        -25.4320    21.7700     1.7280 ca         1 RYR      -0.169000
     19 C27        -25.4280    17.6360     0.6030 c3         1 RYR      -0.096100
     20 C29        -22.7900    19.7740    -3.9520 ca         1 RYR      -0.127000
     21 C30        -20.3730    19.9490    -6.8870 cc         1 RYR      -0.252000
     22 F22        -21.6490    23.9820     2.7340 f          1 RYR      -0.114333
     23 F23        -21.2050    22.2350     3.9490 f          1 RYR      -0.114333
     24 F24        -22.8220    23.5640     4.5160 f          1 RYR      -0.114333
     25 N01        -20.4080    15.7830    -8.7650 n2         1 RYR      -0.846100
     26 N03        -21.2870    15.1560    -6.8060 nv         1 RYR      -1.074200
     27 N12        -24.3040    20.0820    -1.9910 ns         1 RYR      -0.139000
     28 O16        -25.9210    19.9960     0.2270 os         1 RYR      -0.374100
     29 O28        -24.1490    17.7810    -2.0780 o          1 RYR      -0.580100
     30 S31        -19.8220    18.6940    -7.9880 ss         1 RYR       0.321000
     31 H191       -21.6720    20.7840     1.8750 ha         1 RYR       0.133000
     32 H151       -27.9000    18.4050    -0.3480 hc         1 RYR       0.059367
     33 H152       -27.3720    19.2230    -1.8330 hc         1 RYR       0.059367
     34 H153       -27.1050    17.4790    -1.6370 hc         1 RYR       0.059367
     35 H181       -23.2050    19.4860     0.4920 ha         1 RYR       0.134500
     36 H101       -23.5380    22.5860    -2.1540 ha         1 RYR       0.114000
     37 H051       -22.1310    17.4840    -5.4730 ha         1 RYR       0.137000
     38 H081       -20.9050    22.1670    -5.5120 ha         1 RYR       0.117000
     39 H091       -21.9560    23.5700    -3.7900 ha         1 RYR       0.116000
     40 H251       -24.9320    23.3760     3.0760 ha         1 RYR       0.133000
     41 H261       -26.4800    22.0510     1.6770 ha         1 RYR       0.134500
     42 H273       -26.1320    17.7060     1.4410 hc         1 RYR       0.059367
     43 H271       -25.5270    16.6340     0.1670 hc         1 RYR       0.059367
     44 H272       -24.4130    17.7120     1.0040 hc         1 RYR       0.059367
     45 H291       -23.0390    18.7230    -4.0040 ha         1 RYR       0.146000
     46 H301       -20.0000    20.9510    -7.0420 h4         1 RYR       0.150000
     47 H011       -20.7860    14.8490    -8.9540 hn         1 RYR       0.376400
     48 H032       -21.3870    15.4320    -5.8370 hn         1 RYR       0.466500
     49 H121       -24.7860    20.8070    -1.4740 hn         1 RYR       0.165000
     50 H031       -20.9310    14.2190    -6.9480 hn         1 RYR       0.466500
     51 C02        -20.7630    16.1080    -7.5950 ce         1 RYR       0.695800
@<TRIPOS>BOND
     1     1     4 ar  
     2     1     5 ar  
     3     1    31 1   
     4     2     6 1   
     5     2    32 1   
     6     2    33 1   
     7     2    34 1   
     8     3     4 ar  
     9     3    18 ar  
    10     3    28 1   
    11     4    35 1   
    12     5    16 1   
    13     5    17 ar  
    14     6     7 1   
    15     6    19 1   
    16     6    28 1   
    17     7    27 1   
    18     7    29 2   
    19     8     9 ar  
    20     8    15 ar  
    21     8    36 1   
    22     9    20 ar  
    23     9    27 1   
    24    10    11 2   
    25    10    30 1   
    26    10    51 1   
    27    11    12 1   
    28    11    37 1   
    29    12    13 1   
    30    12    21 2   
    31    13    14 ar  
    32    13    20 ar  
    33    14    15 ar  
    34    14    38 1   
    35    15    39 1   
    36    16    22 1   
    37    16    23 1   
    38    16    24 1   
    39    17    18 ar  
    40    17    40 1   
    41    18    41 1   
    42    19    42 1   
    43    19    43 1   
    44    19    44 1   
    45    20    45 1   
    46    21    30 1   
    47    21    46 1   
    48    25    47 1   
    49    25    51 2   
    50    26    48 1   
    51    26    50 1   
    52    26    51 1   
    53    27    49 1   
@<TRIPOS>SUBSTRUCTURE
     1 RYR         1 TEMP              0 ****  ****    0 ROOT
