@<TRIPOS>MOLECULE
RYR
   51    53     1     0     0
SMALL
abcg2


@<TRIPOS>ATOM
      1 C19        -22.4640    20.5060     1.6020 ca         1 RYR      -0.025500
      2 C15        -27.3570    19.1010    -1.1920 c3         1 RYR      -0.096100
      3 C17        -24.7820    20.5860     0.9610 ca         1 RYR       0.160100
      4 C18        -23.5000    20.0600     0.7930 ca         1 RYR      -0.169000
      5 C20        -22.6890    21.4700     2.5770 ca         1 RYR      -0.225300
      6 C14        -25.9520    19.0560    -0.5910 c3         1 RYR       0.110000
      7 C13        -24.9450    19.1110    -1.7630 c          1 RYR       0.580100
      8 C10        -23.7390    22.1910    -3.4090 ca         1 RYR      -0.160000
      9 C11        -23.8790    20.8080    -3.2610 ca         1 RYR      -0.026000
     10 C04        -20.6380    17.5340    -6.6890 cc         1 RYR      -0.285900
     11 C05        -21.3160    18.1880    -5.6960 cd         1 RYR      -0.098000
     12 C06        -21.6460    19.5380    -6.0230 cd         1 RYR      -0.066000
     13 C07        -22.3700    20.4580    -5.1270 ca         1 RYR       0.019000
     14 C08        -22.2320    21.8440    -5.2590 ca         1 RYR      -0.124000
     15 C09        -22.9210    22.6970    -4.4070 ca         1 RYR      -0.081000
     16 C21        -21.5530    21.9710     3.4130 c3         1 RYR       0.348300
     17 C25        -23.9670    22.0080     2.7330 ca         1 RYR      -0.025500
     18 C26        -25.0050    21.5670     1.9330 ca         1 RYR      -0.169000
     19 C27        -25.7840    17.8020     0.2590 c3         1 RYR      -0.096100
     20 C29        -23.2030    19.9460    -4.1250 ca         1 RYR      -0.127000
     21 C30        -21.1980    19.8640    -7.2830 cc         1 RYR      -0.252000
     22 F22        -20.9410    23.0540     2.8590 f          1 RYR      -0.114333
     23 F23        -20.5840    21.0460     3.5880 f          1 RYR      -0.114333
     24 F24        -21.9460    22.3600     4.6470 f          1 RYR      -0.114333
     25 N01        -19.5950    15.7180    -7.8110 n2         1 RYR      -0.846100
     26 N03        -20.3000    15.4310    -5.5720 nv         1 RYR      -1.074200
     27 N12        -24.7210    20.3660    -2.2230 ns         1 RYR      -0.139000
     28 O16        -25.8750    20.2620     0.2130 os         1 RYR      -0.374100
     29 O28        -24.4750    18.0870    -2.2390 o          1 RYR      -0.580100
     30 S31        -20.4030    18.5640    -8.0620 ss         1 RYR       0.321000
     31 H191       -21.4750    20.0880     1.4660 ha         1 RYR       0.133000
     32 H151       -28.0950    19.0490    -0.3910 hc         1 RYR       0.059367
     33 H152       -27.5060    20.0230    -1.7550 hc         1 RYR       0.059367
     34 H153       -27.4990    18.2510    -1.8600 hc         1 RYR       0.059367
     35 H181       -23.2850    19.3130     0.0460 ha         1 RYR       0.134500
     36 H101       -24.2670    22.8580    -2.7390 ha         1 RYR       0.114000
     37 H051       -21.5680    17.7320    -4.7490 ha         1 RYR       0.137000
     38 H081       -21.5760    22.2550    -6.0140 ha         1 RYR       0.117000
     39 H091       -22.8100    23.7680    -4.5120 ha         1 RYR       0.116000
     40 H251       -24.1560    22.7610     3.4860 ha         1 RYR       0.133000
     41 H261       -26.0030    21.9680     2.0500 ha         1 RYR       0.134500
     42 H273       -26.5110    17.8340     1.0690 hc         1 RYR       0.059367
     43 H271       -25.9780    16.9210    -0.3500 hc         1 RYR       0.059367
     44 H272       -24.7880    17.7080     0.6830 hc         1 RYR       0.059367
     45 H291       -23.3320    18.8840    -4.0140 ha         1 RYR       0.146000
     46 H301       -21.3180    20.8020    -7.8020 h4         1 RYR       0.150000
     47 H011       -19.2640    14.7590    -7.7020 hn         1 RYR       0.376400
     48 H032       -20.4200    15.9220    -4.6990 hn         1 RYR       0.466500
     49 H121       -25.1880    21.1020    -1.7130 hn         1 RYR       0.165000
     50 H031       -19.8000    14.5580    -5.4980 hn         1 RYR       0.466500
     51 C02        -20.1230    16.1550    -6.7200 ce         1 RYR       0.695800
@<TRIPOS>BOND
     1     1     4 ar  
     2     1     5 ar  
     3     1    31 1   
     4     2     6 1   
     5     2    32 1   
     6     2    33 1   
     7     2    34 1   
     8     3     4 ar  
     9     3    18 ar  
    10     3    28 1   
    11     4    35 1   
    12     5    16 1   
    13     5    17 ar  
    14     6     7 1   
    15     6    19 1   
    16     6    28 1   
    17     7    27 1   
    18     7    29 2   
    19     8     9 ar  
    20     8    15 ar  
    21     8    36 1   
    22     9    20 ar  
    23     9    27 1   
    24    10    11 2   
    25    10    30 1   
    26    10    51 1   
    27    11    12 1   
    28    11    37 1   
    29    12    13 1   
    30    12    21 2   
    31    13    14 ar  
    32    13    20 ar  
    33    14    15 ar  
    34    14    38 1   
    35    15    39 1   
    36    16    22 1   
    37    16    23 1   
    38    16    24 1   
    39    17    18 ar  
    40    17    40 1   
    41    18    41 1   
    42    19    42 1   
    43    19    43 1   
    44    19    44 1   
    45    20    45 1   
    46    21    30 1   
    47    21    46 1   
    48    25    47 1   
    49    25    51 2   
    50    26    48 1   
    51    26    50 1   
    52    26    51 1   
    53    27    49 1   
@<TRIPOS>SUBSTRUCTURE
     1 RYR         1 TEMP              0 ****  ****    0 ROOT
