@<TRIPOS>MOLECULE
RYS
   45    47     1     0     0
SMALL
abcg2


@<TRIPOS>ATOM
      1 N3          -7.6530    -1.1380    21.5810 nh         1 RYS      -0.776300
      2 C4          -5.1070     1.6900    18.9310 c5         1 RYS       0.223800
      3 N2          -5.9710    -0.4620    20.2200 nb         1 RYS      -0.852000
      4 C7          -4.1440    -1.8980    19.6270 ca         1 RYS      -0.193000
      5 C6          -4.8360    -0.6530    19.5540 ca         1 RYS       0.730900
      6 C9          -5.9790    -2.7470    20.9620 ca         1 RYS      -0.258000
      7 C13         -9.2550    -1.0700    23.2620 c5         1 RYS       0.137800
      8 C8          -4.7870    -2.9400    20.3310 ca         1 RYS      -0.036300
      9 C16         -2.8270    -2.0750    19.1520 cg         1 RYS       0.341000
     10 C1          -2.5550     2.1910    16.1960 c3         1 RYS      -0.076100
     11 C2          -3.7440     1.6440    16.9580 c5         1 RYS       0.175000
     12 C3          -4.2760     2.5930    18.0350 c5         1 RYS      -0.133400
     13 N1          -4.4080     0.4050    18.8450 nh         1 RYS      -0.791300
     14 C5          -3.3930     0.4090    17.7990 c5         1 RYS       0.187800
     15 C10         -6.5310    -1.4380    20.9210 ca         1 RYS       0.708900
     16 C11         -8.2630     0.1850    21.5200 c5         1 RYS       0.211800
     17 C12         -9.5930    -0.0030    22.2230 c5         1 RYS       0.137800
     18 C14         -8.3640    -2.0350    22.4720 c5         1 RYS       0.211800
     19 O1         -10.4200    -1.6370    23.7830 oh         1 RYS      -0.652000
     20 O2         -10.5280    -0.4800    21.2860 oh         1 RYS      -0.652000
     21 F1          -4.8890    -5.2050    20.9940 f          1 RYS      -0.106667
     22 F2          -3.8300    -4.7530    19.1810 f          1 RYS      -0.106667
     23 F3          -2.9780    -4.2280    21.0880 f          1 RYS      -0.106667
     24 N4          -1.7360    -2.2410    18.8050 n1         1 RYS      -0.467000
     25 H1          -5.1580     2.0400    19.9620 h1         1 RYS       0.058700
     26 H2          -6.1400     1.5970    18.5800 h1         1 RYS       0.058700
     27 H3          -6.4840    -3.5450    21.4830 ha         1 RYS       0.142000
     28 H4          -8.6470    -0.5990    24.0460 h1         1 RYS       0.054200
     29 H5          -1.7400     2.4350    16.8770 hc         1 RYS       0.050033
     30 H6          -2.1810     1.4660    15.4710 hc         1 RYS       0.050033
     31 H7          -2.8280     3.0990    15.6580 hc         1 RYS       0.050033
     32 H8          -3.4400     3.0160    18.5970 hc         1 RYS       0.067200
     33 H9          -4.8510     3.4200    17.6170 hc         1 RYS       0.067200
     34 H10         -3.4290    -0.4990    17.1950 h1         1 RYS       0.072700
     35 H11         -2.3860     0.5040    18.2150 h1         1 RYS       0.072700
     36 H12         -7.6460     0.9250    22.0380 h1         1 RYS       0.066950
     37 H13         -8.3810     0.5240    20.4890 h1         1 RYS       0.066950
     38 H14         -9.9300     0.9300    22.6920 h1         1 RYS       0.054200
     39 H15         -8.9710    -2.7620    21.9220 h1         1 RYS       0.066950
     40 H16         -7.6810    -2.5830    23.1230 h1         1 RYS       0.066950
     41 H17        -10.1890    -2.2250    24.5090 ho         1 RYS       0.462000
     42 H18        -11.2940    -0.8170    21.7630 ho         1 RYS       0.462000
     43 H19         -5.5050     0.9490    16.4300 ho         1 RYS       0.450000
     44 C15         -4.1240    -4.2900    20.4000 c3         1 RYS       0.352300
     45 O3          -4.7370     1.3410    15.9990 oh         1 RYS      -0.654000
@<TRIPOS>BOND
     1     1    15 1   
     2     1    16 1   
     3     1    18 1   
     4     2    12 1   
     5     2    13 1   
     6     2    25 1   
     7     2    26 1   
     8     3     5 ar  
     9     3    15 ar  
    10     4     5 ar  
    11     4     8 ar  
    12     4     9 1   
    13     5    13 1   
    14     6     8 ar  
    15     6    15 ar  
    16     6    27 1   
    17     7    17 1   
    18     7    18 1   
    19     7    19 1   
    20     7    28 1   
    21     8    44 1   
    22     9    24 3   
    23    10    11 1   
    24    10    29 1   
    25    10    30 1   
    26    10    31 1   
    27    11    12 1   
    28    11    14 1   
    29    11    45 1   
    30    12    32 1   
    31    12    33 1   
    32    13    14 1   
    33    14    34 1   
    34    14    35 1   
    35    16    17 1   
    36    16    36 1   
    37    16    37 1   
    38    17    20 1   
    39    17    38 1   
    40    18    39 1   
    41    18    40 1   
    42    19    41 1   
    43    20    42 1   
    44    21    44 1   
    45    22    44 1   
    46    23    44 1   
    47    43    45 1   
@<TRIPOS>SUBSTRUCTURE
     1 RYS         1 TEMP              0 ****  ****    0 ROOT
