@<TRIPOS>MOLECULE
RYS
   45    47     1     0     0
SMALL
No Charge or Current Charge


@<TRIPOS>ATOM
      1 N3          -7.4880    -1.0710    21.0000 nh         1 RYS      -0.776300
      2 C4          -3.0020     1.1760    19.5000 c5         1 RYS       0.223800
      3 N2          -5.4990    -0.6340    19.9420 nb         1 RYS      -0.852000
      4 C7          -3.6030    -2.1440    20.0530 ca         1 RYS      -0.193000
      5 C6          -4.2480    -0.9730    19.6250 ca         1 RYS       0.730900
      6 C9          -5.6450    -2.6890    21.1870 ca         1 RYS      -0.258000
      7 C13         -9.5180    -0.6930    22.1790 c5         1 RYS       0.137800
      8 C8          -4.3200    -3.0540    20.8670 ca         1 RYS      -0.036300
      9 C16         -2.2470    -2.3840    19.6500 cg         1 RYS       0.341000
     10 C1          -5.0470     2.7030    16.6080 c3         1 RYS      -0.076100
     11 C2          -4.6380     1.8750    17.8450 c5         1 RYS       0.175000
     12 C3          -3.3180     2.3410    18.5180 c5         1 RYS      -0.133400
     13 N1          -3.6360     0.0050    18.8400 nh         1 RYS      -0.791300
     14 C5          -4.2280     0.4040    17.5330 c5         1 RYS       0.187800
     15 C10         -6.1810    -1.4850    20.7070 ca         1 RYS       0.708900
     16 C11         -8.1750     0.0730    20.3290 c5         1 RYS       0.211800
     17 C12         -9.6750    -0.1120    20.7380 c5         1 RYS       0.137800
     18 C14         -8.3810    -1.7490    21.9760 c5         1 RYS       0.211800
     19 O1         -10.7530    -1.2530    22.6620 oh         1 RYS      -0.652000
     20 O2         -10.3930    -1.0190    19.8820 oh         1 RYS      -0.652000
     21 F1          -4.5670    -5.0910    22.1460 f          1 RYS      -0.106667
     22 F2          -3.3270    -5.1840    20.3720 f          1 RYS      -0.106667
     23 F3          -2.6130    -4.1530    22.1510 f          1 RYS      -0.106667
     24 N4          -1.1440    -2.5960    19.3340 n1         1 RYS      -0.467000
     25 H1          -1.9210     1.0410    19.6440 h1         1 RYS       0.058700
     26 H2          -3.4530     1.3670    20.4850 h1         1 RYS       0.058700
     27 H3          -6.2600    -3.3360    21.8000 ha         1 RYS       0.142000
     28 H4          -9.1710     0.1010    22.8560 h1         1 RYS       0.054200
     29 H5          -4.2500     2.7100    15.8550 hc         1 RYS       0.050033
     30 H6          -5.9470     2.2920    16.1360 hc         1 RYS       0.050033
     31 H7          -5.2560     3.7450    16.8810 hc         1 RYS       0.050033
     32 H8          -2.5150     2.4540    17.7800 hc         1 RYS       0.067200
     33 H9          -3.4190     3.3020    19.0340 hc         1 RYS       0.067200
     34 H10         -5.0930    -0.2110    17.2450 h1         1 RYS       0.072700
     35 H11         -3.4890     0.3430    16.7210 h1         1 RYS       0.072700
     36 H12         -7.7860     1.0340    20.6950 h1         1 RYS       0.066950
     37 H13         -8.0590     0.0510    19.2370 h1         1 RYS       0.066950
     38 H14        -10.1880     0.8590    20.7620 h1         1 RYS       0.054200
     39 H15         -8.7740    -2.6910    21.5680 h1         1 RYS       0.066950
     40 H16         -7.8720    -1.9620    22.9260 h1         1 RYS       0.066950
     41 H17        -10.6360    -1.4340    23.6220 ho         1 RYS       0.462000
     42 H18        -11.0110    -1.4860    20.4900 ho         1 RYS       0.462000
     43 H19         -5.6340     1.0340    19.2530 ho         1 RYS       0.450000
     44 C15         -3.7070    -4.3740    21.3860 c3         1 RYS       0.352300
     45 O3          -5.7230     1.9050    18.7720 oh         1 RYS      -0.654000
@<TRIPOS>BOND
     1     1    15 1   
     2     1    16 1   
     3     1    18 1   
     4     2    12 1   
     5     2    13 1   
     6     2    25 1   
     7     2    26 1   
     8     3     5 ar  
     9     3    15 ar  
    10     4     5 ar  
    11     4     8 ar  
    12     4     9 1   
    13     5    13 1   
    14     6     8 ar  
    15     6    15 ar  
    16     6    27 1   
    17     7    17 1   
    18     7    18 1   
    19     7    19 1   
    20     7    28 1   
    21     8    44 1   
    22     9    24 3   
    23    10    11 1   
    24    10    29 1   
    25    10    30 1   
    26    10    31 1   
    27    11    12 1   
    28    11    14 1   
    29    11    45 1   
    30    12    32 1   
    31    12    33 1   
    32    13    14 1   
    33    14    34 1   
    34    14    35 1   
    35    16    17 1   
    36    16    36 1   
    37    16    37 1   
    38    17    20 1   
    39    17    38 1   
    40    18    39 1   
    41    18    40 1   
    42    19    41 1   
    43    20    42 1   
    44    21    44 1   
    45    22    44 1   
    46    23    44 1   
    47    43    45 1   
@<TRIPOS>SUBSTRUCTURE
     1 RYS         1 TEMP              0 ****  ****    0 ROOT
