@<TRIPOS>MOLECULE
RYU
   54    58     1     0     0
SMALL
No Charge or Current Charge


@<TRIPOS>ATOM
      1 C1           2.8470     1.0500    -4.4150 ca         1 RYU      -0.049000
      2 C2           3.2750     0.6080    -5.6860 ca         1 RYU      -0.135000
      3 C3           2.6850    -0.5250    -6.2930 ca         1 RYU      -0.072000
      4 C4           1.6590    -1.2280    -5.6290 ca         1 RYU      -0.132000
      5 C5           1.2680    -0.7740    -4.3670 ca         1 RYU       0.289000
      6 C6           1.8300     0.3330    -3.7590 ca         1 RYU      -0.180300
      7 C7           1.1580     0.6320    -2.4130 c5         1 RYU       0.259500
      8 C71          0.5420     2.0490    -2.3960 c3         1 RYU      -0.118100
      9 O71          2.1230     0.5400    -1.3650 oh         1 RYU      -0.634000
     10 C8           0.1010    -0.5350    -2.3670 c2         1 RYU       0.260800
     11 N9           0.3010    -1.2520    -3.5340 nu         1 RYU      -0.801000
     12 C10         -1.0630    -0.6410    -1.6660 cc         1 RYU      -0.271400
     13 C11         -2.2600    -1.3700    -2.1600 c          1 RYU       0.578200
     14 O11         -2.4230    -2.0050    -3.1920 o          1 RYU      -0.581000
     15 N12         -3.1900    -1.1610    -1.1820 ns         1 RYU      -0.389100
     16 C13         -2.7430    -0.4030    -0.1070 ca         1 RYU       0.096600
     17 C14         -1.4250    -0.0660    -0.3620 ca         1 RYU      -0.065800
     18 C15         -0.6800     0.6450     0.5910 ca         1 RYU       0.020000
     19 C16         -1.3240     1.0370     1.7900 ca         1 RYU      -0.345500
     20 C17         -2.6860     0.7060     2.0210 ca         1 RYU       0.007000
     21 C18         -3.4080    -0.0330     1.0630 ca         1 RYU      -0.170000
     22 S19         -0.3980     1.9500     3.0330 sy         1 RYU       1.148600
     23 O19          0.6620     2.7210     2.3730 o          1 RYU      -0.539500
     24 O1          -1.3190     2.6000     3.9730 o          1 RYU      -0.539500
     25 N20          0.3840     0.7110     3.9120 n3         1 RYU      -0.699500
     26 C21          1.5270     0.0670     3.2100 c6         1 RYU       0.186800
     27 C22          2.3160    -0.8670     4.1560 c6         1 RYU      -0.092400
     28 C23          1.3880    -1.9330     4.7730 c6         1 RYU       0.173300
     29 O23          2.1150    -2.7340     5.7090 oh         1 RYU      -0.654000
     30 C24          0.1950    -1.2430     5.4680 c6         1 RYU      -0.092400
     31 C25         -0.5390    -0.3040     4.4850 c6         1 RYU       0.186800
     32 H1           3.2930     1.9330    -3.9610 ha         1 RYU       0.118000
     33 H2           4.0620     1.1490    -6.2070 ha         1 RYU       0.121000
     34 H3           3.0200    -0.8520    -7.2750 ha         1 RYU       0.119000
     35 H4           1.1890    -2.0970    -6.0810 ha         1 RYU       0.129000
     36 H711         1.3090     2.8200    -2.5300 hc         1 RYU       0.058033
     37 H712        -0.1850     2.1620    -3.2090 hc         1 RYU       0.058033
     38 H713         0.0200     2.2630    -1.4590 hc         1 RYU       0.058033
     39 H71          2.9190     1.0120    -1.6860 ho         1 RYU       0.458000
     40 H9          -0.4670    -1.8170    -3.9110 hn         1 RYU       0.553000
     41 H12         -4.1250    -1.5450    -1.2370 hn         1 RYU       0.341500
     42 H15          0.3660     0.8800     0.4230 ha         1 RYU       0.141000
     43 H17         -3.1800     1.0060     2.9440 ha         1 RYU       0.134000
     44 H18         -4.4440    -0.3130     1.2340 ha         1 RYU       0.123000
     45 H211         1.1720    -0.5150     2.3470 h1         1 RYU       0.056200
     46 H212         2.2280     0.8210     2.8240 h1         1 RYU       0.056200
     47 H221         3.1300    -1.3520     3.6020 hc         1 RYU       0.062450
     48 H222         2.7840    -0.2700     4.9500 hc         1 RYU       0.062450
     49 H23          1.0010    -2.5690     3.9620 h1         1 RYU       0.024700
     50 HA           1.5100    -3.4520     5.9980 ho         1 RYU       0.443000
     51 H241        -0.5080    -1.9940     5.8530 hc         1 RYU       0.062450
     52 H242         0.5460    -0.6630     6.3330 hc         1 RYU       0.062450
     53 H251        -1.3620     0.1830     5.0280 h1         1 RYU       0.056200
     54 H252        -0.9930    -0.9090     3.6870 h1         1 RYU       0.056200
@<TRIPOS>BOND
     1     1     2 ar  
     2     1     6 ar  
     3     1    32 1   
     4     2     3 ar  
     5     2    33 1   
     6     3     4 ar  
     7     3    34 1   
     8     4     5 ar  
     9     4    35 1   
    10     5     6 ar  
    11     5    11 1   
    12     6     7 1   
    13     7     8 1   
    14     7     9 1   
    15     7    10 1   
    16     8    36 1   
    17     8    37 1   
    18     8    38 1   
    19     9    39 1   
    20    10    11 1   
    21    10    12 2   
    22    11    40 1   
    23    12    13 1   
    24    12    17 1   
    25    13    14 2   
    26    13    15 1   
    27    15    16 1   
    28    15    41 1   
    29    16    17 ar  
    30    16    21 ar  
    31    17    18 ar  
    32    18    19 ar  
    33    18    42 1   
    34    19    20 ar  
    35    19    22 1   
    36    20    21 ar  
    37    20    43 1   
    38    21    44 1   
    39    22    23 2   
    40    22    24 2   
    41    22    25 1   
    42    25    26 1   
    43    25    31 1   
    44    26    27 1   
    45    26    45 1   
    46    26    46 1   
    47    27    28 1   
    48    27    47 1   
    49    27    48 1   
    50    28    29 1   
    51    28    30 1   
    52    28    49 1   
    53    29    50 1   
    54    30    31 1   
    55    30    51 1   
    56    30    52 1   
    57    31    53 1   
    58    31    54 1   
@<TRIPOS>SUBSTRUCTURE
     1 RYU         1 TEMP              0 ****  ****    0 ROOT
