@<TRIPOS>MOLECULE
RYU
   54    58     1     0     0
SMALL
bcc


@<TRIPOS>ATOM
      1 C1           3.1000     0.7630    -4.1170 ca         1 RYU      -0.067000
      2 C2           3.5850     0.3470    -5.3580 ca         1 RYU      -0.153000
      3 C3           2.8250    -0.4910    -6.1650 ca         1 RYU      -0.090000
      4 C4           1.5690    -0.9410    -5.7650 ca         1 RYU      -0.150000
      5 C5           1.1160    -0.5200    -4.5300 ca         1 RYU       0.150600
      6 C6           1.8610     0.3180    -3.7130 ca         1 RYU      -0.180300
      7 C7           1.0610     0.6160    -2.4640 c5         1 RYU       0.236300
      8 C71          0.6390     2.0870    -2.4570 c3         1 RYU      -0.118100
      9 O71          1.7000     0.2210    -1.2800 oh         1 RYU      -0.571800
     10 C8          -0.1680    -0.2750    -2.6670 c2         1 RYU       0.260800
     11 N9          -0.0800    -0.8260    -3.8880 nu         1 RYU      -0.607400
     12 C10         -1.2130    -0.4850    -1.8070 cc         1 RYU      -0.271400
     13 C11         -2.3650    -1.2920    -2.2150 c          1 RYU       0.720700
     14 O11         -2.5520    -1.8900    -3.2700 o          1 RYU      -0.656500
     15 N12         -3.2530    -1.2560    -1.1700 ns         1 RYU      -0.456100
     16 C13         -2.7670    -0.5190    -0.1190 ca         1 RYU       0.096600
     17 C14         -1.4900    -0.0210    -0.4580 ca         1 RYU      -0.065800
     18 C15         -0.8030     0.7220     0.4870 ca         1 RYU       0.002000
     19 C16         -1.4070     0.9660     1.7200 ca         1 RYU      -0.345500
     20 C17         -2.6760     0.4860     2.0320 ca         1 RYU      -0.011000
     21 C18         -3.3700    -0.2720     1.1010 ca         1 RYU      -0.188000
     22 S19         -0.4730     1.7980     2.9630 sy         1 RYU       1.290200
     23 O19          0.5240     2.6340     2.3110 o          1 RYU      -0.610300
     24 O1          -1.3970     2.4050     3.9090 o          1 RYU      -0.610300
     25 N20          0.3560     0.6190     3.7890 n3         1 RYU      -0.699500
     26 C21          1.3630    -0.1100     3.0110 c6         1 RYU       0.186800
     27 C22          2.2910    -0.8680     3.9470 c6         1 RYU      -0.092400
     28 C23          1.5000    -1.8120     4.8340 c6         1 RYU       0.150100
     29 O23          2.4010    -2.4660     5.6990 oh         1 RYU      -0.591800
     30 C24          0.4390    -1.0240     5.5890 c6         1 RYU      -0.092400
     31 C25         -0.4620    -0.2640     4.6270 c6         1 RYU       0.186800
     32 H1           3.6900     1.4250    -3.4940 ha         1 RYU       0.136000
     33 H2           4.5580     0.6810    -5.6930 ha         1 RYU       0.139000
     34 H3           3.2130    -0.8030    -7.1260 ha         1 RYU       0.137000
     35 H4           0.9800    -1.5950    -6.3950 ha         1 RYU       0.147000
     36 H711         1.5220     2.7220    -2.3530 hc         1 RYU       0.058033
     37 H712         0.1510     2.3550    -3.3930 hc         1 RYU       0.058033
     38 H713        -0.0470     2.3120    -1.6420 hc         1 RYU       0.058033
     39 H71          2.4010     0.8520    -1.0810 ho         1 RYU       0.419000
     40 H9          -0.7980    -1.4390    -4.2510 hn         1 RYU       0.497800
     41 H12         -4.1410    -1.7350    -1.1770 hn         1 RYU       0.341500
     42 H15          0.1900     1.0900     0.2880 ha         1 RYU       0.159000
     43 H17         -3.1280     0.6970     2.9910 ha         1 RYU       0.152000
     44 H18         -4.3540    -0.6580     1.3270 ha         1 RYU       0.141000
     45 H211         0.8800    -0.8140     2.3200 h1         1 RYU       0.056200
     46 H212         1.9430     0.5920     2.4160 h1         1 RYU       0.056200
     47 H221         3.0140    -1.4200     3.3430 hc         1 RYU       0.062450
     48 H222         2.8470    -0.1570     4.5660 hc         1 RYU       0.062450
     49 H23          0.9870    -2.5400     4.1860 h1         1 RYU       0.024700
     50 HA           1.9060    -3.0990     6.2290 ho         1 RYU       0.404000
     51 H241        -0.1860    -1.6920     6.1870 hc         1 RYU       0.062450
     52 H242         0.9220    -0.3200     6.2730 hc         1 RYU       0.062450
     53 H251        -1.1770     0.3280     5.1920 h1         1 RYU       0.056200
     54 H252        -1.0250    -0.9750     4.0060 h1         1 RYU       0.056200
@<TRIPOS>BOND
     1     1     2 ar  
     2     1     6 ar  
     3     1    32 1   
     4     2     3 ar  
     5     2    33 1   
     6     3     4 ar  
     7     3    34 1   
     8     4     5 ar  
     9     4    35 1   
    10     5     6 ar  
    11     5    11 1   
    12     6     7 1   
    13     7     8 1   
    14     7     9 1   
    15     7    10 1   
    16     8    36 1   
    17     8    37 1   
    18     8    38 1   
    19     9    39 1   
    20    10    11 1   
    21    10    12 2   
    22    11    40 1   
    23    12    13 1   
    24    12    17 1   
    25    13    14 2   
    26    13    15 1   
    27    15    16 1   
    28    15    41 1   
    29    16    17 ar  
    30    16    21 ar  
    31    17    18 ar  
    32    18    19 ar  
    33    18    42 1   
    34    19    20 ar  
    35    19    22 1   
    36    20    21 ar  
    37    20    43 1   
    38    21    44 1   
    39    22    23 2   
    40    22    24 2   
    41    22    25 1   
    42    25    26 1   
    43    25    31 1   
    44    26    27 1   
    45    26    45 1   
    46    26    46 1   
    47    27    28 1   
    48    27    47 1   
    49    27    48 1   
    50    28    29 1   
    51    28    30 1   
    52    28    49 1   
    53    29    50 1   
    54    30    31 1   
    55    30    51 1   
    56    30    52 1   
    57    31    53 1   
    58    31    54 1   
@<TRIPOS>SUBSTRUCTURE
     1 RYU         1 TEMP              0 ****  ****    0 ROOT
