@<TRIPOS>MOLECULE
RYV
   27    27     1     0     0
SMALL
No Charge or Current Charge


@<TRIPOS>ATOM
      1 S           -3.2970     0.2640     0.0270 sy         1 RYV       1.126600
      2 N            3.6160     0.3210     0.0080 ns         1 RYV      -0.502900
      3 O            3.2210    -1.9090    -0.0270 o          1 RYV      -0.592100
      4 C1           1.2810    -0.4860     0.0020 ca         1 RYV      -0.095600
      5 C2          -1.0200    -1.3410    -0.0060 ca         1 RYV      -0.018500
      6 C3           0.3680    -1.5650    -0.0130 ca         1 RYV      -0.097500
      7 C4          -1.5230    -0.0260     0.0160 ca         1 RYV      -0.254500
      8 C5           0.7620     0.8330     0.0270 ca         1 RYV      -0.097500
      9 C6          -0.6260     1.0600     0.0350 ca         1 RYV      -0.018500
     10 C8           5.0760     0.2350     0.0020 c3         1 RYV       0.103000
     11 O1S         -3.6090     1.6190    -0.4240 o          1 RYV      -0.541000
     12 C9           5.7220     1.6300     0.0230 c3         1 RYV      -0.112100
     13 O2S         -4.0230    -0.9060    -0.4630 o          1 RYV      -0.541000
     14 N3S         -3.6580     0.2990     1.6170 n8         1 RYV      -1.008100
     15 HN           3.1870     1.2360     0.0240 hn         1 RYV       0.316500
     16 H2          -1.6980    -2.1930    -0.0160 ha         1 RYV       0.141000
     17 H3           0.7320    -2.5900    -0.0310 ha         1 RYV       0.130000
     18 H5           1.4190     1.6990     0.0410 ha         1 RYV       0.130000
     19 H6          -0.9990     2.0830     0.0560 ha         1 RYV       0.141000
     20 H1           5.4040    -0.3340     0.8830 h1         1 RYV       0.053700
     21 H1'A         5.3990    -0.3050    -0.8980 h1         1 RYV       0.053700
     22 H4           5.4260     2.1810     0.9230 hc         1 RYV       0.043367
     23 H2'A         6.8150     1.5410     0.0180 hc         1 RYV       0.043367
     24 H2'B         5.4210     2.2100    -0.8580 hc         1 RYV       0.043367
     25 HN3S        -4.4140    -0.3810     1.6480 hn         1 RYV       0.475500
     26 HN3A        -4.1630     1.1810     1.6710 hn         1 RYV       0.475500
     27 C7           2.7730    -0.7700    -0.0070 c          1 RYV       0.603700
@<TRIPOS>BOND
     1     1     7 1   
     2     1    11 2   
     3     1    13 2   
     4     1    14 1   
     5     2    10 1   
     6     2    15 1   
     7     2    27 1   
     8     3    27 2   
     9     4     6 ar  
    10     4     8 ar  
    11     4    27 1   
    12     5     6 ar  
    13     5     7 ar  
    14     5    16 1   
    15     6    17 1   
    16     7     9 ar  
    17     8     9 ar  
    18     8    18 1   
    19     9    19 1   
    20    10    12 1   
    21    10    20 1   
    22    10    21 1   
    23    12    22 1   
    24    12    23 1   
    25    12    24 1   
    26    14    25 1   
    27    14    26 1   
@<TRIPOS>SUBSTRUCTURE
     1 RYV         1 TEMP              0 ****  ****    0 ROOT
