@<TRIPOS>MOLECULE
RYV
   27    27     1     0     0
SMALL
bcc


@<TRIPOS>ATOM
      1 S           -3.2500     0.2270     0.0010 sy         1 RYV       1.268200
      2 N            3.5230     0.3370     0.0760 ns         1 RYV      -0.569900
      3 O            3.1170    -1.8030    -0.5040 o          1 RYV      -0.592100
      4 C1           1.2400    -0.4070    -0.1250 ca         1 RYV      -0.095600
      5 C2          -0.9820    -1.2660     0.2410 ca         1 RYV      -0.036500
      6 C3           0.3850    -1.4640     0.1830 ca         1 RYV      -0.115500
      7 C4          -1.4930    -0.0030    -0.0320 ca         1 RYV      -0.254500
      8 C5           0.7080     0.8480    -0.4000 ca         1 RYV      -0.115500
      9 C6          -0.6630     1.0560    -0.3590 ca         1 RYV      -0.036500
     10 C8           4.9690     0.2240     0.0280 c3         1 RYV       0.103000
     11 O1S         -3.5360     1.5590    -0.5130 o          1 RYV      -0.611800
     12 C9           5.6120     1.5830     0.2210 c3         1 RYV      -0.112100
     13 O2S         -3.8950    -0.9120    -0.6350 o          1 RYV      -0.611800
     14 N3S         -3.5530     0.0770     1.6150 n8         1 RYV      -0.897700
     15 HN           3.1340     1.1860     0.4520 hn         1 RYV       0.316500
     16 H2          -1.6350    -2.0910     0.4930 ha         1 RYV       0.159000
     17 H3           0.7890    -2.4460     0.3860 ha         1 RYV       0.148000
     18 H5           1.3470     1.6770    -0.6760 ha         1 RYV       0.148000
     19 H6          -1.0670     2.0320    -0.5890 ha         1 RYV       0.159000
     20 H1           5.3170    -0.4710     0.7970 h1         1 RYV       0.053700
     21 H1'A         5.2620    -0.1970    -0.9350 h1         1 RYV       0.053700
     22 H4           5.3510     2.0150     1.1890 hc         1 RYV       0.043367
     23 H2'A         6.6960     1.4890     0.1810 hc         1 RYV       0.043367
     24 H2'B         5.3060     2.2810    -0.5580 hc         1 RYV       0.043367
     25 HN3S        -4.5260    -0.1520     1.7940 hn         1 RYV       0.420300
     26 HN3A        -3.2760     0.8960     2.1470 hn         1 RYV       0.420300
     27 C7           2.7110    -0.6900    -0.2010 c          1 RYV       0.670700
@<TRIPOS>BOND
     1     1     7 1   
     2     1    11 2   
     3     1    13 2   
     4     1    14 1   
     5     2    10 1   
     6     2    15 1   
     7     2    27 1   
     8     3    27 2   
     9     4     6 ar  
    10     4     8 ar  
    11     4    27 1   
    12     5     6 ar  
    13     5     7 ar  
    14     5    16 1   
    15     6    17 1   
    16     7     9 ar  
    17     8     9 ar  
    18     8    18 1   
    19     9    19 1   
    20    10    12 1   
    21    10    20 1   
    22    10    21 1   
    23    12    22 1   
    24    12    23 1   
    25    12    24 1   
    26    14    25 1   
    27    14    26 1   
@<TRIPOS>SUBSTRUCTURE
     1 RYV         1 TEMP              0 ****  ****    0 ROOT
