@<TRIPOS>MOLECULE
RYW
   72    76     1     0     0
SMALL
No Charge or Current Charge


@<TRIPOS>ATOM
      1 C1          -4.0300    12.7910    49.2040 c3         1 RYW       0.147900
      2 C3          -2.5830    10.7950    49.0780 ca         1 RYW       0.168100
      3 C5          -1.4360     9.8660    51.0060 ca         1 RYW       0.211000
      4 C7          -0.8790     8.8610    50.2030 ca         1 RYW      -0.188000
      5 C8          -1.1700     8.8100    48.8260 ca         1 RYW      -0.025300
      6 C10         -0.5500     7.7170    47.9500 c3         1 RYW       0.159000
      7 C11         -1.5860     6.6450    47.5070 c3         1 RYW       0.149600
      8 C16          1.9030     9.4010    45.4540 c3         1 RYW       0.047700
      9 N18          3.3870     9.4850    45.3360 n          1 RYW      -0.404800
     10 C19          4.2090    10.7400    45.3600 c5         1 RYW       0.146300
     11 C21          6.8350    10.8140    45.2850 ca         1 RYW      -0.112000
     12 C22          8.0260    10.0590    45.2380 ca         1 RYW      -0.043000
     13 C23          8.0050     8.6320    45.2290 cp         1 RYW      -0.170500
     14 C24          6.7410     7.9800    45.2430 ca         1 RYW      -0.004000
     15 C25          5.5760     8.7580    45.2880 ca         1 RYW      -0.167600
     16 C26          4.1710     8.3190    45.3140 c          1 RYW       0.584600
     17 C28          9.2820     7.8520    45.1650 cp         1 RYW       0.240500
     18 C36         11.2680     9.8110    40.0430 c6         1 RYW       0.157100
     19 C37         11.3180     8.7020    41.1190 c6         1 RYW      -0.132900
     20 C39         10.8080     6.0800    45.7880 ca         1 RYW       0.165900
     21 C40          9.5630     6.7100    45.9670 ca         1 RYW      -0.063000
     22 O2          -3.4100    11.7190    48.4720 os         1 RYW      -0.341100
     23 C4          -2.2860    10.8340    50.4550 ca         1 RYW      -0.246000
     24 F6          -1.1500     9.9030    52.3250 f          1 RYW      -0.180000
     25 C9          -2.0250     9.7870    48.2750 ca         1 RYW      -0.140000
     26 O12         -2.4140     7.1180    46.4260 oh         1 RYW      -0.664000
     27 N13          0.1370     8.3000    46.7930 ns         1 RYW      -0.498900
     28 O15          2.1220     8.7420    47.8100 o          1 RYW      -0.592100
     29 C17          1.2110    10.7670    45.2170 c3         1 RYW      -0.101100
     30 C20          5.6070    10.1380    45.3130 ca         1 RYW      -0.061300
     31 O27          3.7600     7.1670    45.3030 o          1 RYW      -0.544000
     32 N29         10.2080     8.3040    44.2950 nb         1 RYW      -0.256000
     33 C30         11.3630     7.6230    44.1960 ca         1 RYW       0.393900
     34 N31         12.3180     8.0770    43.2970 nu         1 RYW      -0.915100
     35 C32         12.1510     9.1760    42.3340 c6         1 RYW       0.248500
     36 C33         13.5430     9.6640    41.8710 c6         1 RYW      -0.132900
     37 C34         13.3900    10.7310    40.7630 c6         1 RYW       0.157100
     38 O35         12.6110    10.1930    39.6730 os         1 RYW      -0.448000
     39 N38         11.7110     6.5320    44.8970 nb         1 RYW      -0.239000
     40 Cl1          8.4640     6.0920    47.2030 cl         1 RYW      -0.166000
     41 H46         -4.6420    13.4050    48.5330 h1         1 RYW       0.042700
     42 H45         -4.6810    12.3980    49.9950 h1         1 RYW       0.042700
     43 H44         -3.2720    13.4400    49.6620 h1         1 RYW       0.042700
     44 H48         -0.2200     8.1240    50.6550 ha         1 RYW       0.132000
     45 H42          0.2010     7.1890    48.5540 h1         1 RYW       0.089700
     46 H50         -2.2000     6.3610    48.3720 h1         1 RYW       0.036200
     47 H51         -1.0380     5.7490    47.1860 h1         1 RYW       0.036200
     48 H43          1.5550     8.7170    44.6690 h1         1 RYW       0.080700
     49 H58          4.0150    11.3770    44.4880 h1         1 RYW       0.070700
     50 H57          4.0490    11.3180    46.2800 h1         1 RYW       0.070700
     51 H59          6.8700    11.9010    45.2990 ha         1 RYW       0.123000
     52 H60          8.9780    10.5850    45.2190 ha         1 RYW       0.128000
     53 H61          6.6680     6.8960    45.2020 ha         1 RYW       0.144000
     54 H68         10.7400     9.4460    39.1510 h1         1 RYW       0.047450
     55 H70         10.2980     8.4440    41.4300 hc         1 RYW       0.059200
     56 H71         11.7580     7.7940    40.6860 hc         1 RYW       0.059200
     57 H72         11.0900     5.2060    46.3730 h4         1 RYW       0.035100
     58 H47         -2.6990    11.5970    51.1070 ha         1 RYW       0.135000
     59 H49         -2.2600     9.7690    47.2150 ha         1 RYW       0.129000
     60 H52         -3.0550     6.4010    46.2190 ho         1 RYW       0.449000
     61 H53         -0.3830     8.3590    45.9260 hn         1 RYW       0.328500
     62 H55          0.1200    10.6570    45.2210 hc         1 RYW       0.050700
     63 H54          1.4820    11.4840    46.0010 hc         1 RYW       0.050700
     64 H56          1.5010    11.1840    44.2460 hc         1 RYW       0.050700
     65 H62         13.1750     7.5240    43.2600 hn         1 RYW       0.507000
     66 H63         11.6390    10.0290    42.8090 h1         1 RYW       0.075700
     67 H64         14.1360     8.8240    41.4840 hc         1 RYW       0.059200
     68 H65         14.0990    10.0860    42.7190 hc         1 RYW       0.059200
     69 H66         14.3800    11.0250    40.3850 h1         1 RYW       0.047450
     70 H67         12.8940    11.6290    41.1590 h1         1 RYW       0.047450
     71 C14          1.4250     8.7880    46.8030 c          1 RYW       0.584100
     72 H69         10.7300    10.6910    40.4240 h1         1 RYW       0.047450
@<TRIPOS>BOND
     1     1    22 1   
     2     1    41 1   
     3     1    42 1   
     4     1    43 1   
     5     2    22 1   
     6     2    23 ar  
     7     2    25 ar  
     8     3     4 ar  
     9     3    23 ar  
    10     3    24 1   
    11     4     5 ar  
    12     4    44 1   
    13     5     6 1   
    14     5    25 ar  
    15     6     7 1   
    16     6    27 1   
    17     6    45 1   
    18     7    26 1   
    19     7    46 1   
    20     7    47 1   
    21     8     9 1   
    22     8    29 1   
    23     8    48 1   
    24     8    71 1   
    25     9    10 1   
    26     9    16 1   
    27    10    30 1   
    28    10    49 1   
    29    10    50 1   
    30    11    12 ar  
    31    11    30 ar  
    32    11    51 1   
    33    12    13 ar  
    34    12    52 1   
    35    13    14 ar  
    36    13    17 1   
    37    14    15 ar  
    38    14    53 1   
    39    15    16 1   
    40    15    30 ar  
    41    16    31 2   
    42    17    21 ar  
    43    17    32 ar  
    44    18    19 1   
    45    18    38 1   
    46    18    54 1   
    47    18    72 1   
    48    19    35 1   
    49    19    55 1   
    50    19    56 1   
    51    20    21 ar  
    52    20    39 ar  
    53    20    57 1   
    54    21    40 1   
    55    23    58 1   
    56    25    59 1   
    57    26    60 1   
    58    27    61 1   
    59    27    71 1   
    60    28    71 2   
    61    29    62 1   
    62    29    63 1   
    63    29    64 1   
    64    32    33 ar  
    65    33    34 1   
    66    33    39 ar  
    67    34    35 1   
    68    34    65 1   
    69    35    36 1   
    70    35    66 1   
    71    36    37 1   
    72    36    67 1   
    73    36    68 1   
    74    37    38 1   
    75    37    69 1   
    76    37    70 1   
@<TRIPOS>SUBSTRUCTURE
     1 RYW         1 TEMP              0 ****  ****    0 ROOT
