@<TRIPOS>MOLECULE
RYW
   72    76     1     0     0
SMALL
bcc


@<TRIPOS>ATOM
      1 C1          -3.5770    13.0310    48.3700 c3         1 RYW       0.124700
      2 C3          -2.3160    11.0500    48.7080 ca         1 RYW       0.168100
      3 C5          -2.0290    10.0240    50.8310 ca         1 RYW       0.175900
      4 C7          -1.2530     9.0200    50.3000 ca         1 RYW      -0.206000
      5 C8          -1.0060     9.0330    48.9270 ca         1 RYW      -0.025300
      6 C10         -0.1920     7.8980    48.3330 c3         1 RYW       0.159000
      7 C11         -1.0400     6.6430    48.1690 c3         1 RYW       0.126400
      8 C16          1.9840     9.2410    45.5290 c3         1 RYW       0.047700
      9 N18          3.4180     9.2480    45.3910 n          1 RYW      -0.471800
     10 C19          4.2530    10.4190    45.5830 c5         1 RYW       0.146300
     11 C21          6.8670    10.4760    45.4810 ca         1 RYW      -0.130000
     12 C22          7.9980     9.6920    45.3150 ca         1 RYW      -0.061000
     13 C23          7.9140     8.3040    45.1420 cp         1 RYW      -0.170500
     14 C24          6.6660     7.6890    45.1080 ca         1 RYW      -0.022000
     15 C25          5.5450     8.4860    45.2580 ca         1 RYW      -0.167600
     16 C26          4.1220     8.0950    45.2590 c          1 RYW       0.727100
     17 C28          9.1620     7.5360    44.9440 cp         1 RYW       0.568800
     18 C36         11.0060    10.3440    40.3240 c6         1 RYW       0.133900
     19 C37         11.0850     9.0410    41.1050 c6         1 RYW      -0.132900
     20 C39         10.6520     5.7150    45.2560 ca         1 RYW       0.494200
     21 C40          9.4410     6.3220    45.5680 ca         1 RYW      -0.285200
     22 O2          -2.7830    11.9790    47.8590 os         1 RYW      -0.317900
     23 C4          -2.5740    11.0480    50.0750 ca         1 RYW      -0.264000
     24 F6          -2.2740    10.0230    52.1510 f          1 RYW      -0.144900
     25 C9          -1.5330    10.0400    48.1390 ca         1 RYW      -0.158000
     26 O12         -2.0460     6.9060    47.2220 oh         1 RYW      -0.601800
     27 N13          0.4150     8.2300    47.0670 ns         1 RYW      -0.565900
     28 O15          2.2930     9.1600    47.9150 o          1 RYW      -0.592100
     29 C17          1.3650    10.5860    45.1580 c3         1 RYW      -0.101100
     30 C20          5.6310     9.8530    45.4500 ca         1 RYW      -0.061300
     31 O27          3.6500     6.9750    45.1670 o          1 RYW      -0.619500
     32 N29         10.0530     8.0810    44.1270 nb         1 RYW      -0.782000
     33 C30         11.2000     7.4380    43.9070 ca         1 RYW       0.919900
     34 N31         12.1160     8.0160    43.1130 nu         1 RYW      -0.859900
     35 C32         11.9110     9.2430    42.3760 c6         1 RYW       0.248500
     36 C33         13.2570     9.8580    42.0120 c6         1 RYW      -0.132900
     37 C34         13.0460    11.1070    41.1690 c6         1 RYW       0.133900
     38 O35         12.2860    10.8460    40.0110 os         1 RYW      -0.401600
     39 N38         11.5260     6.2450    44.4310 nb         1 RYW      -0.765000
     40 CL1          8.4060     5.5760    46.7310 cl         1 RYW      -0.074400
     41 H46         -3.8350    13.6620    47.5230 h1         1 RYW       0.042700
     42 H45         -4.4980    12.6620    48.8280 h1         1 RYW       0.042700
     43 H44         -3.0340    13.6330    49.1030 h1         1 RYW       0.042700
     44 H48         -0.8420     8.2460    50.9380 ha         1 RYW       0.150000
     45 H42          0.6060     7.6460    49.0360 h1         1 RYW       0.089700
     46 H50         -1.4530     6.3710    49.1470 h1         1 RYW       0.036200
     47 H51         -0.3850     5.8230    47.8520 h1         1 RYW       0.036200
     48 H43          1.5920     8.4860    44.8430 h1         1 RYW       0.080700
     49 H58          4.0580    11.1840    44.8270 h1         1 RYW       0.070700
     50 H57          4.0930    10.8710    46.5650 h1         1 RYW       0.070700
     51 H59          6.9590    11.5450    45.6240 ha         1 RYW       0.141000
     52 H60          8.9740    10.1600    45.3280 ha         1 RYW       0.146000
     53 H61          6.5600     6.6260    44.9400 ha         1 RYW       0.162000
     54 H68         10.4810    10.1950    39.3790 h1         1 RYW       0.047450
     55 H70         10.0760     8.7040    41.3550 hc         1 RYW       0.059200
     56 H71         11.5490     8.2640    40.4900 hc         1 RYW       0.059200
     57 H72         10.9100     4.7610    45.7060 h4         1 RYW       0.035100
     58 H47         -3.1710    11.8080    50.5610 ha         1 RYW       0.153000
     59 H49         -1.3450    10.0660    47.0740 ha         1 RYW       0.147000
     60 H52         -2.4630     6.0740    46.9770 ho         1 RYW       0.410000
     61 H53         -0.1120     8.0300    46.2300 hn         1 RYW       0.328500
     62 H55          0.2790    10.5080    45.1830 hc         1 RYW       0.050700
     63 H54          1.6590    11.3770    45.8470 hc         1 RYW       0.050700
     64 H56          1.6540    10.8750    44.1480 hc         1 RYW       0.050700
     65 H62         12.9250     7.4570    42.8890 hn         1 RYW       0.451800
     66 H63         11.3790     9.9420    43.0280 h1         1 RYW       0.075700
     67 H64         13.8580     9.1340    41.4520 hc         1 RYW       0.059200
     68 H65         13.8170    10.1210    42.9120 hc         1 RYW       0.059200
     69 H66         14.0040    11.5120    40.8400 h1         1 RYW       0.047450
     70 H67         12.5560    11.8790    41.7820 h1         1 RYW       0.047450
     71 C14          1.5930     8.8670    46.9610 c          1 RYW       0.651100
     72 H69         10.4350    11.0850    40.9040 h1         1 RYW       0.047450
@<TRIPOS>BOND
     1     1    22 1   
     2     1    41 1   
     3     1    42 1   
     4     1    43 1   
     5     2    22 1   
     6     2    23 ar  
     7     2    25 ar  
     8     3     4 ar  
     9     3    23 ar  
    10     3    24 1   
    11     4     5 ar  
    12     4    44 1   
    13     5     6 1   
    14     5    25 ar  
    15     6     7 1   
    16     6    27 1   
    17     6    45 1   
    18     7    26 1   
    19     7    46 1   
    20     7    47 1   
    21     8     9 1   
    22     8    29 1   
    23     8    48 1   
    24     8    71 1   
    25     9    10 1   
    26     9    16 1   
    27    10    30 1   
    28    10    49 1   
    29    10    50 1   
    30    11    12 ar  
    31    11    30 ar  
    32    11    51 1   
    33    12    13 ar  
    34    12    52 1   
    35    13    14 ar  
    36    13    17 1   
    37    14    15 ar  
    38    14    53 1   
    39    15    16 1   
    40    15    30 ar  
    41    16    31 2   
    42    17    21 ar  
    43    17    32 ar  
    44    18    19 1   
    45    18    38 1   
    46    18    54 1   
    47    18    72 1   
    48    19    35 1   
    49    19    55 1   
    50    19    56 1   
    51    20    21 ar  
    52    20    39 ar  
    53    20    57 1   
    54    21    40 1   
    55    23    58 1   
    56    25    59 1   
    57    26    60 1   
    58    27    61 1   
    59    27    71 1   
    60    28    71 2   
    61    29    62 1   
    62    29    63 1   
    63    29    64 1   
    64    32    33 ar  
    65    33    34 1   
    66    33    39 ar  
    67    34    35 1   
    68    34    65 1   
    69    35    36 1   
    70    35    66 1   
    71    36    37 1   
    72    36    67 1   
    73    36    68 1   
    74    37    38 1   
    75    37    69 1   
    76    37    70 1   
@<TRIPOS>SUBSTRUCTURE
     1 RYW         1 TEMP              0 ****  ****    0 ROOT
