@<TRIPOS>MOLECULE
RYX
   30    30     1     0     0
SMALL
abcg2


@<TRIPOS>ATOM
      1 S           -5.3300    -0.4290    -0.1220 sy         1 RYX       1.127600
      2 N            1.3340     0.4380    -0.5750 ns         1 RYX      -0.503900
      3 O            0.8590     1.9050     1.0820 o          1 RYX      -0.567100
      4 C1          -0.9370     0.6520     0.1750 ca         1 RYX      -0.101600
      5 C2          -2.6520    -0.9970    -0.2090 ca         1 RYX      -0.017000
      6 C3          -1.3100    -0.6510    -0.1350 ca         1 RYX      -0.094500
      7 C4          -3.6090    -0.0250     0.0230 ca         1 RYX      -0.249500
      8 C5          -1.9160     1.6110     0.4310 ca         1 RYX      -0.094500
      9 C6          -3.2550     1.2810     0.3420 ca         1 RYX      -0.017000
     10 F2'1         3.0670    -0.3740     1.4620 f          1 RYX      -0.087000
     11 F3'1         5.6380    -1.0690     0.9050 f          1 RYX      -0.094667
     12 F2'2         3.3070    -1.5690    -0.3390 f          1 RYX      -0.087000
     13 F3'2         5.2980     1.0580     0.8230 f          1 RYX      -0.094667
     14 F3'3         5.5280    -0.0700    -1.0020 f          1 RYX      -0.094667
     15 C8           2.7430     0.7050    -0.6170 c3         1 RYX       0.056000
     16 O1S         -6.0190     0.6640    -0.7910 o          1 RYX      -0.540500
     17 C9           3.5080    -0.3360     0.1840 c3         1 RYX       0.107000
     18 O2S         -5.4220    -1.7640    -0.6940 o          1 RYX      -0.540500
     19 C10          5.0260    -0.1020     0.2310 c3         1 RYX       0.264000
     20 N3S         -5.8040    -0.3670     1.4550 n8         1 RYX      -1.007100
     21 HN           0.9490    -0.1440    -1.3020 hn         1 RYX       0.331500
     22 H2          -2.9320    -2.0140    -0.4470 ha         1 RYX       0.143000
     23 H3          -0.5650    -1.4180    -0.3010 ha         1 RYX       0.132000
     24 H5          -1.6310     2.6230     0.6840 ha         1 RYX       0.132000
     25 H6          -4.0080     2.0360     0.5220 ha         1 RYX       0.143000
     26 H1           3.0790     0.6830    -1.6530 h1         1 RYX       0.093200
     27 H1'A         2.9450     1.7010    -0.2250 h1         1 RYX       0.093200
     28 HN3S        -5.5060    -1.1760     1.9910 hn         1 RYX       0.478000
     29 HN3A        -6.8080    -0.2340     1.5400 hn         1 RYX       0.478000
     30 C7           0.4980     1.0590     0.2830 c          1 RYX       0.613700
@<TRIPOS>BOND
     1     1     7 1   
     2     1    16 2   
     3     1    18 2   
     4     1    20 1   
     5     2    15 1   
     6     2    21 1   
     7     2    30 1   
     8     3    30 2   
     9     4     6 ar  
    10     4     8 ar  
    11     4    30 1   
    12     5     6 ar  
    13     5     7 ar  
    14     5    22 1   
    15     6    23 1   
    16     7     9 ar  
    17     8     9 ar  
    18     8    24 1   
    19     9    25 1   
    20    10    17 1   
    21    11    19 1   
    22    12    17 1   
    23    13    19 1   
    24    14    19 1   
    25    15    17 1   
    26    15    26 1   
    27    15    27 1   
    28    17    19 1   
    29    20    28 1   
    30    20    29 1   
@<TRIPOS>SUBSTRUCTURE
     1 RYX         1 TEMP              0 ****  ****    0 ROOT
