@<TRIPOS>MOLECULE
RYX
   30    30     1     0     0
SMALL
No Charge or Current Charge


@<TRIPOS>ATOM
      1 S           -5.4650    -0.2940     0.0690 sy         1 RYX       1.127600
      2 N            1.3910     0.2610    -0.6450 ns         1 RYX      -0.503900
      3 O            0.9220     2.2030     0.4300 o          1 RYX      -0.567100
      4 C1          -0.9500     0.7700    -0.0380 ca         1 RYX      -0.101600
      5 C2          -2.7910    -0.7700    -0.5560 ca         1 RYX      -0.017000
      6 C3          -1.4220    -0.4480    -0.5900 ca         1 RYX      -0.094500
      7 C4          -3.7150     0.1180     0.0270 ca         1 RYX      -0.249500
      8 C5          -1.8900     1.6490     0.5480 ca         1 RYX      -0.094500
      9 C6          -3.2580     1.3290     0.5820 ca         1 RYX      -0.017000
     10 F2'1         3.1620     0.3550     1.6470 f          1 RYX      -0.087000
     11 F3'1         5.7750    -0.5950     1.4710 f          1 RYX      -0.094667
     12 F2'2         3.3040    -1.5210     0.5610 f          1 RYX      -0.087000
     13 F3'2         5.4970     1.2750     0.3650 f          1 RYX      -0.094667
     14 F3'3         5.6410    -0.6110    -0.7140 f          1 RYX      -0.094667
     15 C8           2.8570     0.4290    -0.7100 c3         1 RYX       0.056000
     16 O1S         -6.2800     0.9020     0.2630 o          1 RYX      -0.540500
     17 C9           3.6080    -0.2020     0.4950 c3         1 RYX       0.107000
     18 O2S         -5.7890    -1.3040    -0.9360 o          1 RYX      -0.540500
     19 C10          5.1520    -0.0340     0.4080 c3         1 RYX       0.264000
     20 N3S         -5.6230    -1.0960     1.4800 n8         1 RYX      -1.007100
     21 HN           0.9880    -0.5850    -1.0260 hn         1 RYX       0.331500
     22 H2          -3.1270    -1.7130    -0.9850 ha         1 RYX       0.143000
     23 H3          -0.7430    -1.1620    -1.0490 ha         1 RYX       0.132000
     24 H5          -1.5630     2.5910     0.9820 ha         1 RYX       0.132000
     25 H6          -3.9580     2.0260     1.0410 ha         1 RYX       0.143000
     26 H1           3.2170    -0.0320    -1.6400 h1         1 RYX       0.093200
     27 H1'A         3.0960     1.5000    -0.7680 h1         1 RYX       0.093200
     28 HN3S        -6.0910    -1.9410     1.1580 hn         1 RYX       0.478000
     29 HN3A        -6.3900    -0.5760     1.9000 hn         1 RYX       0.478000
     30 C7           0.5190     1.1530    -0.0530 c          1 RYX       0.613700
@<TRIPOS>BOND
     1     1     7 1   
     2     1    16 2   
     3     1    18 2   
     4     1    20 1   
     5     2    15 1   
     6     2    21 1   
     7     2    30 1   
     8     3    30 2   
     9     4     6 ar  
    10     4     8 ar  
    11     4    30 1   
    12     5     6 ar  
    13     5     7 ar  
    14     5    22 1   
    15     6    23 1   
    16     7     9 ar  
    17     8     9 ar  
    18     8    24 1   
    19     9    25 1   
    20    10    17 1   
    21    11    19 1   
    22    12    17 1   
    23    13    19 1   
    24    14    19 1   
    25    15    17 1   
    26    15    26 1   
    27    15    27 1   
    28    17    19 1   
    29    20    28 1   
    30    20    29 1   
@<TRIPOS>SUBSTRUCTURE
     1 RYX         1 TEMP              0 ****  ****    0 ROOT
