@<TRIPOS>MOLECULE
RYY
   30    30     1     0     0
SMALL
bcc


@<TRIPOS>ATOM
      1 N           -3.1500     0.1170    -0.0310 ns         1 RYY      -0.566900
      2 S            3.6110     0.3960    -0.1490 sy         1 RYY       1.268200
      3 C1          -0.8280    -0.4640     0.2370 ca         1 RYY      -0.095600
      4 C2          -0.3660     0.8460     0.3010 ca         1 RYY      -0.115000
      5 C3           0.9890     1.1220     0.1910 ca         1 RYY      -0.037000
      6 C4           1.8750     0.0730     0.0160 ca         1 RYY      -0.251500
      7 C5           1.4350    -1.2440    -0.0450 ca         1 RYY      -0.037000
      8 C6           0.0840    -1.5070     0.0760 ca         1 RYY      -0.115000
      9 C7          -2.2790    -0.8120     0.3800 c          1 RYY       0.670700
     10 O7          -2.6200    -1.8890     0.8510 o          1 RYY      -0.594100
     11 C8          -4.5860    -0.0660     0.0480 c3         1 RYY       0.099000
     12 C16         -6.8210     1.0730    -0.1280 c3         1 RYY      -0.088100
     13 O1S          4.1730    -0.5180    -1.1320 o          1 RYY      -0.613300
     14 C9          -5.3110     1.2440    -0.2100 c3         1 RYY      -0.094400
     15 O2S          3.7780     1.8280    -0.3520 o          1 RYY      -0.613300
     16 N3S          4.1680    -0.1140     1.3170 n8         1 RYY      -0.897700
     17 HN          -2.8140     0.9090    -0.5540 hn         1 RYY       0.315500
     18 H2          -1.0480     1.6710     0.4610 ha         1 RYY       0.148000
     19 H3           1.3350     2.1450     0.2470 ha         1 RYY       0.158000
     20 H5           2.1320    -2.0600    -0.1810 ha         1 RYY       0.158000
     21 H6          -0.2650    -2.5290     0.0370 ha         1 RYY       0.148000
     22 H1          -4.9140    -0.8230    -0.6730 h1         1 RYY       0.054200
     23 H1'A        -4.8400    -0.4440     1.0410 h1         1 RYY       0.054200
     24 H16         -7.1750     0.3380    -0.8520 hc         1 RYY       0.038033
     25 H16A        -7.1280     0.7370     0.8630 hc         1 RYY       0.038033
     26 H16B        -7.3330     2.0130    -0.3330 hc         1 RYY       0.038033
     27 H4          -4.9800     1.9910     0.5160 hc         1 RYY       0.042700
     28 H2'A        -5.0390     1.6250    -1.1990 hc         1 RYY       0.042700
     29 HN3S         3.9910     0.5510     2.0630 hn         1 RYY       0.421800
     30 HN3A         5.1540    -0.3550     1.2810 hn         1 RYY       0.421800
@<TRIPOS>BOND
     1     1     9 1   
     2     1    11 1   
     3     1    17 1   
     4     2     6 1   
     5     2    13 2   
     6     2    15 2   
     7     2    16 1   
     8     3     4 ar  
     9     3     8 ar  
    10     3     9 1   
    11     4     5 ar  
    12     4    18 1   
    13     5     6 ar  
    14     5    19 1   
    15     6     7 ar  
    16     7     8 ar  
    17     7    20 1   
    18     8    21 1   
    19     9    10 2   
    20    11    14 1   
    21    11    22 1   
    22    11    23 1   
    23    12    14 1   
    24    12    24 1   
    25    12    25 1   
    26    12    26 1   
    27    14    27 1   
    28    14    28 1   
    29    16    29 1   
    30    16    30 1   
@<TRIPOS>SUBSTRUCTURE
     1 RYY         1 TEMP              0 ****  ****    0 ROOT
