@<TRIPOS>MOLECULE
RYY
   30    30     1     0     0
SMALL
No Charge or Current Charge


@<TRIPOS>ATOM
      1 N           -3.2090     0.0830     0.0150 ns         1 RYY      -0.499900
      2 S            3.7010     0.3260    -0.0140 sy         1 RYY       1.126600
      3 C1          -0.8410    -0.6210     0.0300 ca         1 RYY      -0.095600
      4 C2          -0.3800     0.7180    -0.0110 ca         1 RYY      -0.097000
      5 C3           0.9970     1.0040    -0.0240 ca         1 RYY      -0.019000
      6 C4           1.9410    -0.0410     0.0020 ca         1 RYY      -0.251500
      7 C5           1.4940    -1.3760     0.0460 ca         1 RYY      -0.019000
      8 C6           0.1180    -1.6600     0.0590 ca         1 RYY      -0.097000
      9 C7          -2.3190    -0.9700     0.0450 c          1 RYY       0.603700
     10 O7          -2.7170    -2.1270     0.0810 o          1 RYY      -0.594100
     11 C8          -4.6640    -0.0650     0.0240 c3         1 RYY       0.099000
     12 C16         -6.9100     1.1810    -0.0070 c3         1 RYY      -0.088100
     13 O1S          4.4740    -0.8340    -0.4530 o          1 RYY      -0.542500
     14 C9          -5.3740     1.3020    -0.0150 c3         1 RYY      -0.094400
     15 O2S          3.9510     1.6700    -0.5290 o          1 RYY      -0.542500
     16 N3S          4.0690     0.4510     1.5700 n8         1 RYY      -1.008100
     17 HN          -2.8190     1.0160    -0.0150 hn         1 RYY       0.315500
     18 H2          -1.0730     1.5550    -0.0330 ha         1 RYY       0.130000
     19 H3           1.3260     2.0430    -0.0540 ha         1 RYY       0.140000
     20 H5           2.2090    -2.1970     0.0710 ha         1 RYY       0.140000
     21 H6          -0.2020    -2.6990     0.0920 ha         1 RYY       0.130000
     22 H1          -4.9650    -0.6610    -0.8480 h1         1 RYY       0.054200
     23 H1'A        -4.9600    -0.6080     0.9320 h1         1 RYY       0.054200
     24 H16         -7.2590     0.6150    -0.8790 hc         1 RYY       0.038033
     25 H16A        -7.2540     0.6680     0.9000 hc         1 RYY       0.038033
     26 H16B        -7.3720     2.1750    -0.0350 hc         1 RYY       0.038033
     27 H4          -5.0580     1.8990     0.8500 hc         1 RYY       0.042700
     28 H2'A        -5.0630     1.8470    -0.9150 hc         1 RYY       0.042700
     29 HN3S         4.5350     1.3550     1.5770 hn         1 RYY       0.477000
     30 HN3A         4.8540    -0.1930     1.6260 hn         1 RYY       0.477000
@<TRIPOS>BOND
     1     1     9 1   
     2     1    11 1   
     3     1    17 1   
     4     2     6 1   
     5     2    13 2   
     6     2    15 2   
     7     2    16 1   
     8     3     4 ar  
     9     3     8 ar  
    10     3     9 1   
    11     4     5 ar  
    12     4    18 1   
    13     5     6 ar  
    14     5    19 1   
    15     6     7 ar  
    16     7     8 ar  
    17     7    20 1   
    18     8    21 1   
    19     9    10 2   
    20    11    14 1   
    21    11    22 1   
    22    11    23 1   
    23    12    14 1   
    24    12    24 1   
    25    12    25 1   
    26    12    26 1   
    27    14    27 1   
    28    14    28 1   
    29    16    29 1   
    30    16    30 1   
@<TRIPOS>SUBSTRUCTURE
     1 RYY         1 TEMP              0 ****  ****    0 ROOT
