@<TRIPOS>MOLECULE
RYZ
   33    33     1     0     0
SMALL
No Charge or Current Charge


@<TRIPOS>ATOM
      1 S           -6.2120    -0.7390    -0.0610 sy         1 RYZ       1.128600
      2 N            0.5300     0.4810     0.8760 ns         1 RYZ      -0.505900
      3 O           -0.0250     2.2100    -0.4850 o          1 RYZ      -0.566100
      4 C1          -1.8050     0.7040     0.0980 ca         1 RYZ      -0.101600
      5 C2          -3.5500    -0.8950     0.7500 ca         1 RYZ      -0.017500
      6 C3          -2.2140    -0.4590     0.7990 ca         1 RYZ      -0.094500
      7 C4          -4.5040    -0.1810    -0.0000 ca         1 RYZ      -0.248500
      8 C5          -2.7750     1.4120    -0.6490 ca         1 RYZ      -0.094500
      9 C6          -4.1110     0.9770    -0.6990 ca         1 RYZ      -0.017500
     10 F2'1         2.6260    -1.2800     0.0110 f          1 RYZ      -0.086000
     11 F3'1         4.5540     1.6990    -0.0300 f          1 RYZ      -0.076500
     12 F4'1         6.5970    -0.0120    -0.7980 f          1 RYZ      -0.084667
     13 F2'2         2.4070     0.4080    -1.3240 f          1 RYZ      -0.086000
     14 F3'2         4.7770     0.0020     1.2840 f          1 RYZ      -0.076500
     15 F4'2         4.9870     0.0370    -2.2730 f          1 RYZ      -0.084667
     16 F4'3         5.1990    -1.6830    -0.9520 f          1 RYZ      -0.084667
     17 C8           1.9730     0.7790     0.9810 c3         1 RYZ       0.061000
     18 O1S         -6.9050    -0.1800    -1.2200 o          1 RYZ      -0.538500
     19 C9           2.8380     0.0550    -0.0900 c3         1 RYZ       0.134000
     20 O2S         -6.3140    -2.1510     0.3020 o          1 RYZ      -0.538500
     21 C10          4.3700     0.3570     0.0400 c3         1 RYZ       0.068000
     22 N3S         -6.9000     0.0300     1.2020 n8         1 RYZ      -1.012100
     23 C11          5.2990    -0.3350    -1.0100 c3         1 RYZ       0.284000
     24 HN           0.1720    -0.3340     1.3560 hn         1 RYZ       0.331500
     25 H2          -3.8380    -1.7900     1.2990 ha         1 RYZ       0.142500
     26 H3          -1.5110    -1.0400     1.3890 ha         1 RYZ       0.131500
     27 H5          -2.4960     2.3090    -1.1980 ha         1 RYZ       0.131500
     28 H6          -4.8350     1.5450    -1.2810 ha         1 RYZ       0.142500
     29 H1           2.1250     1.8630     0.9000 h1         1 RYZ       0.094200
     30 H1'A         2.3140     0.4800     1.9810 h1         1 RYZ       0.094200
     31 HN3S        -7.6950     0.4640     0.7400 hn         1 RYZ       0.477500
     32 HN3A        -7.3340    -0.7560     1.6790 hn         1 RYZ       0.477500
     33 C7          -0.3730     1.2070     0.1240 c          1 RYZ       0.613700
@<TRIPOS>BOND
     1     1     7 1   
     2     1    18 2   
     3     1    20 2   
     4     1    22 1   
     5     2    17 1   
     6     2    24 1   
     7     2    33 1   
     8     3    33 2   
     9     4     6 ar  
    10     4     8 ar  
    11     4    33 1   
    12     5     6 ar  
    13     5     7 ar  
    14     5    25 1   
    15     6    26 1   
    16     7     9 ar  
    17     8     9 ar  
    18     8    27 1   
    19     9    28 1   
    20    10    19 1   
    21    11    21 1   
    22    12    23 1   
    23    13    19 1   
    24    14    21 1   
    25    15    23 1   
    26    16    23 1   
    27    17    19 1   
    28    17    29 1   
    29    17    30 1   
    30    19    21 1   
    31    21    23 1   
    32    22    31 1   
    33    22    32 1   
@<TRIPOS>SUBSTRUCTURE
     1 RYZ         1 TEMP              0 ****  ****    0 ROOT
