@<TRIPOS>MOLECULE
RYZ
   33    33     1     0     0
SMALL
abcg2


@<TRIPOS>ATOM
      1 S           -6.1000    -0.6680    -0.1210 sy         1 RYZ       1.128600
      2 N            0.4470     0.7370     0.7600 ns         1 RYZ      -0.505900
      3 O           -0.0410     2.0990    -0.9790 o          1 RYZ      -0.566100
      4 C1          -1.7980     0.7700    -0.1070 ca         1 RYZ      -0.101600
      5 C2          -3.4220    -0.9640     0.2950 ca         1 RYZ      -0.017500
      6 C3          -2.1090    -0.5270     0.2960 ca         1 RYZ      -0.094500
      7 C4          -4.4230    -0.0890    -0.1050 ca         1 RYZ      -0.248500
      8 C5          -2.8120     1.6240    -0.5250 ca         1 RYZ      -0.094500
      9 C6          -4.1320     1.2020    -0.5170 ca         1 RYZ      -0.017500
     10 F2'1         2.4950    -1.1830     0.6360 f          1 RYZ      -0.086000
     11 F3'1         4.3490     1.5490    -0.5330 f          1 RYZ      -0.076500
     12 F4'1         6.3560    -0.2130    -0.5840 f          1 RYZ      -0.084667
     13 F2'2         2.2440    -0.0550    -1.2040 f          1 RYZ      -0.086000
     14 F3'2         4.5990     0.4490     1.3370 f          1 RYZ      -0.076500
     15 F4'2         4.7790    -0.7790    -1.9350 f          1 RYZ      -0.084667
     16 F4'3         5.0510    -1.8480    -0.0810 f          1 RYZ      -0.084667
     17 C8           1.8390     1.0730     0.8310 c3         1 RYZ       0.061000
     18 O1S         -6.9000     0.3170    -0.8340 o          1 RYZ      -0.538500
     19 C9           2.6670     0.0380     0.0760 c3         1 RYZ       0.134000
     20 O2S         -6.1210    -2.0480    -0.5810 o          1 RYZ      -0.538500
     21 C10          4.1750     0.3540     0.0620 c3         1 RYZ       0.068000
     22 N3S         -6.4290    -0.7220     1.4930 n8         1 RYZ      -1.012100
     23 C11          5.1040    -0.6540    -0.6550 c3         1 RYZ       0.284000
     24 HN           0.0700     0.1620     1.4960 hn         1 RYZ       0.331500
     25 H2          -3.6510    -1.9760     0.5990 ha         1 RYZ       0.142500
     26 H3          -1.3320    -1.2230     0.5860 ha         1 RYZ       0.131500
     27 H5          -2.5760     2.6270    -0.8530 ha         1 RYZ       0.131500
     28 H6          -4.9150     1.8770    -0.8340 ha         1 RYZ       0.142500
     29 H1           2.0050     2.0660     0.4130 h1         1 RYZ       0.094200
     30 H1'A         2.1460     1.0970     1.8750 h1         1 RYZ       0.094200
     31 HN3S        -6.6200     0.1920     1.8930 hn         1 RYZ       0.477500
     32 HN3A        -7.1860    -1.3660     1.7020 hn         1 RYZ       0.477500
     33 C7          -0.3870     1.2660    -0.1600 c          1 RYZ       0.613700
@<TRIPOS>BOND
     1     1     7 1   
     2     1    18 2   
     3     1    20 2   
     4     1    22 1   
     5     2    17 1   
     6     2    24 1   
     7     2    33 1   
     8     3    33 2   
     9     4     6 ar  
    10     4     8 ar  
    11     4    33 1   
    12     5     6 ar  
    13     5     7 ar  
    14     5    25 1   
    15     6    26 1   
    16     7     9 ar  
    17     8     9 ar  
    18     8    27 1   
    19     9    28 1   
    20    10    19 1   
    21    11    21 1   
    22    12    23 1   
    23    13    19 1   
    24    14    21 1   
    25    15    23 1   
    26    16    23 1   
    27    17    19 1   
    28    17    29 1   
    29    17    30 1   
    30    19    21 1   
    31    21    23 1   
    32    22    31 1   
    33    22    32 1   
@<TRIPOS>SUBSTRUCTURE
     1 RYZ         1 TEMP              0 ****  ****    0 ROOT
