@<TRIPOS>MOLECULE
RZ0
   33    33     1     0     0
SMALL
abcg2


@<TRIPOS>ATOM
      1 S           -4.0350    -0.4180     0.0100 sy         1 RZ0       1.130600
      2 N            2.6950     0.3060     0.0300 ns         1 RZ0      -0.500900
      3 O            2.0450     2.3570    -0.6430 o          1 RZ0      -0.592100
      4 C1           0.3410     0.7760    -0.1750 ca         1 RZ0      -0.096600
      5 C2          -1.3730    -0.9150    -0.3130 ca         1 RZ0      -0.019500
      6 C3          -0.0400    -0.5500    -0.3740 ca         1 RZ0      -0.097000
      7 C4          -2.3270     0.0570    -0.0480 ca         1 RZ0      -0.249500
      8 C5          -0.6330     1.7370     0.0750 ca         1 RZ0      -0.097000
      9 C6          -1.9700     1.3830     0.1480 ca         1 RZ0      -0.019500
     10 C8           4.1170     0.5730    -0.0560 c3         1 RZ0       0.101000
     11 O1S         -4.8310     0.7930    -0.1260 o          1 RZ0      -0.542000
     12 C9           4.9120    -0.7080     0.1430 c3         1 RZ0      -0.095400
     13 O2S         -4.2540    -1.5100    -0.9270 o          1 RZ0      -0.542000
     14 C10          6.4110    -0.4790     0.0090 c3         1 RZ0      -0.072400
     15 N3S         -4.1390    -1.0850     1.5130 n8         1 RZ0      -1.016100
     16 C11          7.2140    -1.7560     0.2090 c3         1 RZ0      -0.090100
     17 HN           2.4100    -0.5530     0.4720 hn         1 RZ0       0.316500
     18 H2          -1.6560    -1.9450    -0.4830 ha         1 RZ0       0.140000
     19 H3           0.6920    -1.3110    -0.6100 ha         1 RZ0       0.130000
     20 H5          -0.3500     2.7710     0.2180 ha         1 RZ0       0.130000
     21 H6          -2.7170     2.1390     0.3460 ha         1 RZ0       0.140000
     22 H1           4.3410     1.0000    -1.0360 h1         1 RZ0       0.053700
     23 H1'A         4.4110     1.3170     0.6910 h1         1 RZ0       0.053700
     24 H7           4.6940    -1.1230     1.1330 hc         1 RZ0       0.042700
     25 H2'A         4.5880    -1.4540    -0.5890 hc         1 RZ0       0.042700
     26 HN3S        -4.2450    -0.3990     2.2520 hn         1 RZ0       0.478500
     27 HN3A        -4.8690    -1.7890     1.5650 hn         1 RZ0       0.478500
     28 H4           8.2840    -1.5740     0.1040 hc         1 RZ0       0.034033
     29 H4'A         7.0460    -2.1790     1.2010 hc         1 RZ0       0.034033
     30 H14          6.9360    -2.5160    -0.5230 hc         1 RZ0       0.034033
     31 H8           6.6270    -0.0650    -0.9800 hc         1 RZ0       0.042700
     32 H16          6.7320     0.2760     0.7330 hc         1 RZ0       0.042700
     33 C7           1.7690     1.2210    -0.2820 c          1 RZ0       0.603700
@<TRIPOS>BOND
     1     1     7 1   
     2     1    11 2   
     3     1    13 2   
     4     1    15 1   
     5     2    10 1   
     6     2    17 1   
     7     2    33 1   
     8     3    33 2   
     9     4     6 ar  
    10     4     8 ar  
    11     4    33 1   
    12     5     6 ar  
    13     5     7 ar  
    14     5    18 1   
    15     6    19 1   
    16     7     9 ar  
    17     8     9 ar  
    18     8    20 1   
    19     9    21 1   
    20    10    12 1   
    21    10    22 1   
    22    10    23 1   
    23    12    14 1   
    24    12    24 1   
    25    12    25 1   
    26    14    16 1   
    27    14    31 1   
    28    14    32 1   
    29    15    26 1   
    30    15    27 1   
    31    16    28 1   
    32    16    29 1   
    33    16    30 1   
@<TRIPOS>SUBSTRUCTURE
     1 RZ0         1 TEMP              0 ****  ****    0 ROOT
