@<TRIPOS>MOLECULE
RZ0
   33    33     1     0     0
SMALL
No Charge or Current Charge


@<TRIPOS>ATOM
      1 S           -4.1030    -0.5150    -0.0060 sy         1 RZ0       1.130600
      2 N            2.7630     0.2990    -0.0080 ns         1 RZ0      -0.500900
      3 O            2.0900     2.4620    -0.0180 o          1 RZ0      -0.592100
      4 C1           0.3450     0.8050    -0.0100 ca         1 RZ0      -0.096600
      5 C2          -1.3520    -0.9680    -0.0000 ca         1 RZ0      -0.019500
      6 C3          -0.0040    -0.5680    -0.0020 ca         1 RZ0      -0.097000
      7 C4          -2.3790    -0.0040    -0.0080 ca         1 RZ0      -0.249500
      8 C5          -0.6970     1.7610    -0.0150 ca         1 RZ0      -0.097000
      9 C6          -2.0450     1.3640    -0.0130 ca         1 RZ0      -0.019500
     10 C8           4.2010     0.5680    -0.0100 c3         1 RZ0       0.101000
     11 O1S         -4.9700     0.5600    -0.4820 o          1 RZ0      -0.542000
     12 C9           5.0210    -0.7360    -0.0040 c3         1 RZ0      -0.095400
     13 O2S         -4.2420    -1.8930    -0.4710 o          1 RZ0      -0.542000
     14 C10          6.5450    -0.4870    -0.0060 c3         1 RZ0      -0.072400
     15 N3S         -4.4590    -0.6140     1.5830 n8         1 RZ0      -1.016100
     16 C11          7.3690    -1.7890     0.0000 c3         1 RZ0      -0.090100
     17 HN           2.4520    -0.6630    -0.0040 hn         1 RZ0       0.316500
     18 H2          -1.5940    -2.0300     0.0080 ha         1 RZ0       0.140000
     19 H3           0.7560    -1.3450     0.0030 ha         1 RZ0       0.130000
     20 H5          -0.4640     2.8240    -0.0200 ha         1 RZ0       0.130000
     21 H6          -2.8250     2.1240    -0.0150 ha         1 RZ0       0.140000
     22 H1           4.4510     1.1560    -0.9030 h1         1 RZ0       0.053700
     23 H1'A         4.4510     1.1640     0.8780 h1         1 RZ0       0.053700
     24 H7           4.7530    -1.3260     0.8820 hc         1 RZ0       0.042700
     25 H2'A         4.7520    -1.3340    -0.8840 hc         1 RZ0       0.042700
     26 HN3S        -5.2950    -0.0350     1.6160 hn         1 RZ0       0.478500
     27 HN3A        -4.8490    -1.5520     1.6220 hn         1 RZ0       0.478500
     28 H4           8.4420    -1.5620    -0.0010 hc         1 RZ0       0.034033
     29 H4'A         7.1460    -2.3860     0.8930 hc         1 RZ0       0.034033
     30 H14          7.1450    -2.3940    -0.8860 hc         1 RZ0       0.034033
     31 H8           6.8160     0.1030    -0.8900 hc         1 RZ0       0.042700
     32 H16          6.8170     0.1110     0.8730 hc         1 RZ0       0.042700
     33 C7           1.7890     1.2750    -0.0130 c          1 RZ0       0.603700
@<TRIPOS>BOND
     1     1     7 1   
     2     1    11 2   
     3     1    13 2   
     4     1    15 1   
     5     2    10 1   
     6     2    17 1   
     7     2    33 1   
     8     3    33 2   
     9     4     6 ar  
    10     4     8 ar  
    11     4    33 1   
    12     5     6 ar  
    13     5     7 ar  
    14     5    18 1   
    15     6    19 1   
    16     7     9 ar  
    17     8     9 ar  
    18     8    20 1   
    19     9    21 1   
    20    10    12 1   
    21    10    22 1   
    22    10    23 1   
    23    12    14 1   
    24    12    24 1   
    25    12    25 1   
    26    14    16 1   
    27    14    31 1   
    28    14    32 1   
    29    15    26 1   
    30    15    27 1   
    31    16    28 1   
    32    16    29 1   
    33    16    30 1   
@<TRIPOS>SUBSTRUCTURE
     1 RZ0         1 TEMP              0 ****  ****    0 ROOT
