@<TRIPOS>MOLECULE
RZ1
   36    36     1     0     0
SMALL
abcg2


@<TRIPOS>ATOM
      1 S           -6.9560    -0.6910    -0.2390 sy         1 RZ1       1.143600
      2 N           -0.4100     0.5820     0.8210 ns         1 RZ1      -0.505900
      3 O           -0.8490     2.0680    -0.8280 o          1 RZ1      -0.562100
      4 C1          -2.6270     0.6800    -0.1080 ca         1 RZ1      -0.101600
      5 C2          -4.2690    -1.0700     0.1280 ca         1 RZ1      -0.025000
      6 C3          -2.9530    -0.6410     0.1880 ca         1 RZ1      -0.092000
      7 C4          -5.2580    -0.1620    -0.2200 ca         1 RZ1      -0.296500
      8 C5          -3.6310     1.5680    -0.4840 ca         1 RZ1      -0.092000
      9 C6          -4.9510     1.1560    -0.5310 ca         1 RZ1      -0.025000
     10 F2'1         1.7470    -1.2650     0.6760 f          1 RZ1      -0.084000
     11 F3'1         3.4670     1.5550    -0.4750 f          1 RZ1      -0.076000
     12 F4'1         4.4510    -1.6530     0.5020 f          1 RZ1      -0.062500
     13 F5'1         5.8340     0.8020    -1.5580 f          1 RZ1      -0.083000
     14 F2'2         1.4610    -0.0490    -1.1020 f          1 RZ1      -0.084000
     15 F3'2         3.6960     0.6480     1.4940 f          1 RZ1      -0.076000
     16 F4'2         3.9330    -1.0810    -1.5390 f          1 RZ1      -0.062500
     17 F5'2         6.5930    -1.0990    -0.9000 f          1 RZ1      -0.083000
     18 F5'3         6.2790     0.4820     0.5280 f          1 RZ1      -0.083000
     19 C8           0.9690     0.9430     0.9820 c3         1 RZ1       0.060000
     20 O1S         -7.6860     0.1860    -1.1370 o          1 RZ1      -0.524000
     21 C9           1.8600    -0.0070     0.1870 c3         1 RZ1       0.140000
     22 O2S         -6.9700    -2.1280    -0.4450 o          1 RZ1      -0.524000
     23 C10          3.3510     0.4050     0.2150 c3         1 RZ1       0.095000
     24 N3S         -7.5590    -0.4280     1.2630 n8         1 RZ1      -1.003100
     25 C11          4.3650    -0.6240    -0.3530 c3         1 RZ1       0.086000
     26 C12          5.8030    -0.0840    -0.5730 c3         1 RZ1       0.282000
     27 HN          -0.8090    -0.0410     1.5040 hn         1 RZ1       0.329500
     28 H2          -4.5050    -2.1020     0.3440 ha         1 RZ1       0.142500
     29 H3          -2.1860    -1.3620     0.4410 ha         1 RZ1       0.132500
     30 H5          -3.3830     2.5910    -0.7350 ha         1 RZ1       0.132500
     31 H6          -5.7230     1.8590    -0.8150 ha         1 RZ1       0.142500
     32 H1           1.1260     1.9700     0.6530 h1         1 RZ1       0.094200
     33 H1'A         1.2260     0.8880     2.0380 h1         1 RZ1       0.094200
     34 HN3S        -7.1340    -0.9950     1.9880 hn         1 RZ1       0.479000
     35 HN3A        -7.5990     0.5500     1.5290 hn         1 RZ1       0.479000
     36 C7          -1.2170     1.1760    -0.0850 c          1 RZ1       0.613700
@<TRIPOS>BOND
     1     1     7 1   
     2     1    20 2   
     3     1    22 2   
     4     1    24 1   
     5     2    19 1   
     6     2    27 1   
     7     2    36 1   
     8     3    36 2   
     9     4     6 ar  
    10     4     8 ar  
    11     4    36 1   
    12     5     6 ar  
    13     5     7 ar  
    14     5    28 1   
    15     6    29 1   
    16     7     9 ar  
    17     8     9 ar  
    18     8    30 1   
    19     9    31 1   
    20    10    21 1   
    21    11    23 1   
    22    12    25 1   
    23    13    26 1   
    24    14    21 1   
    25    15    23 1   
    26    16    25 1   
    27    17    26 1   
    28    18    26 1   
    29    19    21 1   
    30    19    32 1   
    31    19    33 1   
    32    21    23 1   
    33    23    25 1   
    34    24    34 1   
    35    24    35 1   
    36    25    26 1   
@<TRIPOS>SUBSTRUCTURE
     1 RZ1         1 TEMP              0 ****  ****    0 ROOT
