@<TRIPOS>MOLECULE
RZ1
   36    36     1     0     0
SMALL
No Charge or Current Charge


@<TRIPOS>ATOM
      1 S           -7.0810    -0.8250    -0.2010 sy         1 RZ1       1.143600
      2 N           -0.3880     0.5240     0.8960 ns         1 RZ1      -0.505900
      3 O           -0.8990     2.1300    -0.6230 o          1 RZ1      -0.562100
      4 C1          -2.6920     0.6610     0.0130 ca         1 RZ1      -0.101600
      5 C2          -4.4510    -0.8960     0.7260 ca         1 RZ1      -0.025000
      6 C3          -3.1210    -0.4450     0.7900 ca         1 RZ1      -0.092000
      7 C4          -5.3800    -0.2530    -0.1160 ca         1 RZ1      -0.296500
      8 C5          -3.6360     1.2950    -0.8280 ca         1 RZ1      -0.092000
      9 C6          -4.9660     0.8460    -0.8930 ca         1 RZ1      -0.025000
     10 F2'1         1.7460    -1.2780     0.2530 f          1 RZ1      -0.084000
     11 F3'1         3.6530     1.7090     0.0890 f          1 RZ1      -0.076000
     12 F4'1         4.2970    -1.7130    -0.6380 f          1 RZ1      -0.062500
     13 F5'1         6.2710     1.2490    -0.6680 f          1 RZ1      -0.083000
     14 F2'2         1.5740     0.2990    -1.2180 f          1 RZ1      -0.084000
     15 F3'2         3.8360     0.1080     1.5080 f          1 RZ1      -0.076000
     16 F4'2         4.1650    -0.0680    -2.0290 f          1 RZ1      -0.062500
     17 F5'2         6.7620    -0.7370    -1.4330 f          1 RZ1      -0.083000
     18 F5'3         6.4150    -0.4390     0.7020 f          1 RZ1      -0.083000
     19 C8           1.0480     0.8430     1.0320 c3         1 RZ1       0.060000
     20 O1S         -7.6880    -0.4470    -1.4770 o          1 RZ1      -0.524000
     21 C9           1.9600     0.0450     0.0550 c3         1 RZ1       0.140000
     22 O2S         -7.1860    -2.1670     0.3660 o          1 RZ1      -0.524000
     23 C10          3.4870     0.3700     0.2250 c3         1 RZ1       0.095000
     24 N3S         -7.7990     0.1310     0.9160 n8         1 RZ1      -1.003100
     25 C11          4.4810    -0.3750    -0.7470 c3         1 RZ1       0.086000
     26 C12          6.0010    -0.0700    -0.5330 c3         1 RZ1       0.282000
     27 HN          -0.7600    -0.2530     1.4270 hn         1 RZ1       0.329500
     28 H2          -4.7500    -1.7500     1.3340 ha         1 RZ1       0.142500
     29 H3          -2.4370    -0.9700     1.4510 ha         1 RZ1       0.132500
     30 H5          -3.3410     2.1460    -1.4380 ha         1 RZ1       0.132500
     31 H6          -5.6690     1.3570    -1.5490 ha         1 RZ1       0.142500
     32 H1           1.1950     1.9190     0.8710 h1         1 RZ1       0.094200
     33 H1'A         1.3520     0.6280     2.0650 h1         1 RZ1       0.094200
     34 HN3S        -8.2420    -0.5680     1.5090 hn         1 RZ1       0.479000
     35 HN3A        -7.0040     0.4470     1.4650 hn         1 RZ1       0.479000
     36 C7          -1.2650     1.1770     0.0520 c          1 RZ1       0.613700
@<TRIPOS>BOND
     1     1     7 1   
     2     1    20 2   
     3     1    22 2   
     4     1    24 1   
     5     2    19 1   
     6     2    27 1   
     7     2    36 1   
     8     3    36 2   
     9     4     6 ar  
    10     4     8 ar  
    11     4    36 1   
    12     5     6 ar  
    13     5     7 ar  
    14     5    28 1   
    15     6    29 1   
    16     7     9 ar  
    17     8     9 ar  
    18     8    30 1   
    19     9    31 1   
    20    10    21 1   
    21    11    23 1   
    22    12    25 1   
    23    13    26 1   
    24    14    21 1   
    25    15    23 1   
    26    16    25 1   
    27    17    26 1   
    28    18    26 1   
    29    19    21 1   
    30    19    32 1   
    31    19    33 1   
    32    21    23 1   
    33    23    25 1   
    34    24    34 1   
    35    24    35 1   
    36    25    26 1   
@<TRIPOS>SUBSTRUCTURE
     1 RZ1         1 TEMP              0 ****  ****    0 ROOT
