@<TRIPOS>MOLECULE
RZ4
   25    24     1     0     0
SMALL
No Charge or Current Charge


@<TRIPOS>ATOM
      1 C           24.4290    43.0340    -4.1150 c          1 RZ4       0.730000
      2 N           24.6740    45.4820    -5.0580 n8         1 RZ4      -0.976200
      3 O           23.2290    42.7820    -4.1520 o          1 RZ4      -0.727500
      4 C1          24.8250    46.0460     0.2280 c3         1 RZ4      -0.100767
      5 C2          22.8370    44.4320    -0.0240 c3         1 RZ4      -0.100767
      6 C3          25.0960    43.5760     0.7700 c3         1 RZ4      -0.100767
      7 CA          24.8940    44.5310    -3.8960 c3         1 RZ4       0.013500
      8 CB          24.2980    45.0870    -2.5740 c3         1 RZ4       0.182600
      9 CE          24.3750    44.6050    -0.1300 c3         1 RZ4       0.195000
     10 OG          24.8030    44.2870    -1.4780 os         1 RZ4      -0.447000
     11 OXT         25.2880    42.1950    -4.3610 o          1 RZ4      -0.727500
     12 HN          25.1260    46.3810    -4.8550 hn         1 RZ4       0.363500
     13 HNA         25.1780    45.1300    -5.8820 hn         1 RZ4       0.363500
     14 H1          25.8880    46.1910     0.0000 hc         1 RZ4       0.033144
     15 H1A         24.2460    46.7970    -0.3210 hc         1 RZ4       0.033144
     16 H1B         24.6780    46.2370     1.2970 hc         1 RZ4       0.033144
     17 H2          22.5240    43.4630    -0.4300 hc         1 RZ4       0.033144
     18 H2A         22.5190    44.4780     1.0240 hc         1 RZ4       0.033144
     19 H2B         22.3040    45.2240    -0.5630 hc         1 RZ4       0.033144
     20 H3          24.8120    42.5520     0.4980 hc         1 RZ4       0.033144
     21 H3A         26.1850    43.6670     0.6720 hc         1 RZ4       0.033144
     22 H3B         24.8360    43.7320     1.8240 hc         1 RZ4       0.033144
     23 HA          25.9840    44.4970    -3.7570 h1         1 RZ4       0.012700
     24 HB          24.6070    46.1340    -2.4610 h1         1 RZ4       0.010200
     25 HBA         23.2030    45.0540    -2.6270 h1         1 RZ4       0.010200
@<TRIPOS>BOND
     1     1     3 1   
     2     1     7 1   
     3     1    11 1   
     4     2     7 1   
     5     2    12 1   
     6     2    13 1   
     7     4     9 1   
     8     4    14 1   
     9     4    15 1   
    10     4    16 1   
    11     5     9 1   
    12     5    17 1   
    13     5    18 1   
    14     5    19 1   
    15     6     9 1   
    16     6    20 1   
    17     6    21 1   
    18     6    22 1   
    19     7     8 1   
    20     7    23 1   
    21     8    10 1   
    22     8    24 1   
    23     8    25 1   
    24     9    10 1   
@<TRIPOS>SUBSTRUCTURE
     1 RZ4         1 TEMP              0 ****  ****    0 ROOT
