@<TRIPOS>MOLECULE
RZ4
   25    24     1     0     0
SMALL
bcc


@<TRIPOS>ATOM
      1 C           24.1790    43.1890    -4.0050 c          1 RZ4       0.940600
      2 N           24.6390    45.4250    -4.9310 n8         1 RZ4      -0.865800
      3 O           22.9400    43.2690    -3.8830 o          1 RZ4      -0.832800
      4 C1          24.6050    46.0400     0.2320 c3         1 RZ4      -0.100767
      5 C2          22.9220    44.2280    -0.1890 c3         1 RZ4      -0.100767
      6 C3          25.1600    43.6640     0.7530 c3         1 RZ4      -0.100767
      7 CA          24.9800    44.5060    -3.8450 c3         1 RZ4       0.013500
      8 CB          24.6390    45.1960    -2.5360 c3         1 RZ4       0.159400
      9 CE          24.4090    44.5870    -0.2000 c3         1 RZ4       0.171800
     10 OG          24.9830    44.3340    -1.4780 os         1 RZ4      -0.400600
     11 OXT         24.8400    42.1620    -4.2610 o          1 RZ4      -0.832800
     12 HN          25.2510    46.2310    -4.8890 hn         1 RZ4       0.308300
     13 HNA         24.8410    44.9860    -5.8210 hn         1 RZ4       0.308300
     14 H1          25.6580    46.3260     0.1950 hc         1 RZ4       0.033144
     15 H1A         24.0410    46.7360    -0.3930 hc         1 RZ4       0.033144
     16 H1B         24.2600    46.1750     1.2580 hc         1 RZ4       0.033144
     17 H2          22.7710    43.1920    -0.4960 hc         1 RZ4       0.033144
     18 H2A         22.5160    44.3440     0.8170 hc         1 RZ4       0.033144
     19 H2B         22.3360    44.8680    -0.8510 hc         1 RZ4       0.033144
     20 H3          25.0540    42.6200     0.4530 hc         1 RZ4       0.033144
     21 H3A         26.2250    43.9050     0.7770 hc         1 RZ4       0.033144
     22 H3B         24.7710    43.7610     1.7670 hc         1 RZ4       0.033144
     23 HA          26.0520    44.2580    -3.8340 h1         1 RZ4       0.012700
     24 HB          25.1940    46.1440    -2.4650 h1         1 RZ4       0.010200
     25 HBA         23.5740    45.4480    -2.5450 h1         1 RZ4       0.010200
@<TRIPOS>BOND
     1     1     3 1   
     2     1     7 1   
     3     1    11 1   
     4     2     7 1   
     5     2    12 1   
     6     2    13 1   
     7     4     9 1   
     8     4    14 1   
     9     4    15 1   
    10     4    16 1   
    11     5     9 1   
    12     5    17 1   
    13     5    18 1   
    14     5    19 1   
    15     6     9 1   
    16     6    20 1   
    17     6    21 1   
    18     6    22 1   
    19     7     8 1   
    20     7    23 1   
    21     8    10 1   
    22     8    24 1   
    23     8    25 1   
    24     9    10 1   
@<TRIPOS>SUBSTRUCTURE
     1 RZ4         1 TEMP              0 ****  ****    0 ROOT
