@<TRIPOS>MOLECULE
RZ5
   36    36     1     0     0
SMALL
abcg2


@<TRIPOS>ATOM
      1 S           -4.4310    -0.6580    -0.1470 sy         1 RZ5       1.127600
      2 N            2.2450     0.3990     0.0540 ns         1 RZ5      -0.499900
      3 O            1.4820     2.4240     0.6810 o          1 RZ5      -0.594100
      4 C1          -0.1320     0.7550     0.1990 ca         1 RZ5      -0.096600
      5 C2          -1.7690    -1.0090     0.3350 ca         1 RZ5      -0.019500
      6 C3          -0.4580    -0.5800     0.4350 ca         1 RZ5      -0.097000
      7 C4          -2.7540    -0.0960    -0.0130 ca         1 RZ5      -0.250500
      8 C5          -1.1360     1.6580    -0.1320 ca         1 RZ5      -0.097000
      9 C6          -2.4500     1.2350    -0.2540 ca         1 RZ5      -0.019500
     10 C8           3.6510     0.7430     0.1480 c3         1 RZ5       0.102000
     11 O1S         -5.1780     0.3540    -0.8790 o          1 RZ5      -0.542500
     12 C9           4.5170    -0.4840    -0.0850 c3         1 RZ5      -0.095400
     13 O2S         -4.4380    -2.0260    -0.6440 o          1 RZ5      -0.542500
     14 C10          6.0010    -0.1680     0.0440 c3         1 RZ5      -0.074400
     15 N3S         -4.8610    -0.7500     1.4420 n8         1 RZ5      -1.009100
     16 C11          6.8890    -1.3810    -0.2050 c3         1 RZ5      -0.074400
     17 C12          8.3700    -1.0660    -0.0530 c3         1 RZ5      -0.089100
     18 HN           2.0090    -0.4850    -0.3680 hn         1 RZ5       0.317500
     19 H2          -2.0100    -2.0450     0.5330 ha         1 RZ5       0.139500
     20 H3           0.3010    -1.2960     0.7220 ha         1 RZ5       0.130000
     21 H5          -0.8950     2.6970    -0.3070 ha         1 RZ5       0.130000
     22 H6          -3.2200     1.9430    -0.5310 ha         1 RZ5       0.139500
     23 H1           3.9000     1.5200    -0.5810 h1         1 RZ5       0.054200
     24 H1'A         3.8530     1.1580     1.1380 h1         1 RZ5       0.054200
     25 H7           4.2450    -1.2640     0.6340 hc         1 RZ5       0.042700
     26 H2'A         4.3140    -0.8890    -1.0820 hc         1 RZ5       0.042700
     27 H8           6.2680     0.6280    -0.6590 hc         1 RZ5       0.043200
     28 H3'A         6.2020     0.2280     1.0450 hc         1 RZ5       0.043200
     29 HN3S        -5.0630     0.1570     1.8520 hn         1 RZ5       0.476500
     30 HN3A        -5.6390    -1.3860     1.5850 hn         1 RZ5       0.476500
     31 H4           6.6110    -2.1800     0.4880 hc         1 RZ5       0.037700
     32 H4'A         6.6970    -1.7700    -1.2100 hc         1 RZ5       0.037700
     33 H9           8.5970    -0.7190     0.9570 hc         1 RZ5       0.033700
     34 H5'A         8.9880    -1.9420    -0.2480 hc         1 RZ5       0.033700
     35 H5'B         8.6800    -0.2820    -0.7470 hc         1 RZ5       0.033700
     36 C7           1.2700     1.2710     0.3330 c          1 RZ5       0.603700
@<TRIPOS>BOND
     1     1     7 1   
     2     1    11 2   
     3     1    13 2   
     4     1    15 1   
     5     2    10 1   
     6     2    18 1   
     7     2    36 1   
     8     3    36 2   
     9     4     6 ar  
    10     4     8 ar  
    11     4    36 1   
    12     5     6 ar  
    13     5     7 ar  
    14     5    19 1   
    15     6    20 1   
    16     7     9 ar  
    17     8     9 ar  
    18     8    21 1   
    19     9    22 1   
    20    10    12 1   
    21    10    23 1   
    22    10    24 1   
    23    12    14 1   
    24    12    25 1   
    25    12    26 1   
    26    14    16 1   
    27    14    27 1   
    28    14    28 1   
    29    15    29 1   
    30    15    30 1   
    31    16    17 1   
    32    16    31 1   
    33    16    32 1   
    34    17    33 1   
    35    17    34 1   
    36    17    35 1   
@<TRIPOS>SUBSTRUCTURE
     1 RZ5         1 TEMP              0 ****  ****    0 ROOT
