@<TRIPOS>MOLECULE
RZ5
   36    36     1     0     0
SMALL
No Charge or Current Charge


@<TRIPOS>ATOM
      1 S           -4.5440    -0.6110    -0.0280 sy         1 RZ5       1.127600
      2 N            2.2870     0.4580     0.0460 ns         1 RZ5      -0.499900
      3 O            1.5330     2.5930     0.1390 o          1 RZ5      -0.594100
      4 C1          -0.1480     0.8730     0.0560 ca         1 RZ5      -0.096600
      5 C2          -1.7780    -0.9600    -0.0310 ca         1 RZ5      -0.019500
      6 C3          -0.4460    -0.5110    -0.0060 ca         1 RZ5      -0.097000
      7 C4          -2.8400    -0.0360     0.0040 ca         1 RZ5      -0.250500
      8 C5          -1.2250     1.7890     0.0930 ca         1 RZ5      -0.097000
      9 C6          -2.5580     1.3420     0.0680 ca         1 RZ5      -0.019500
     10 C8           3.7130     0.7800     0.0650 c3         1 RZ5       0.102000
     11 O1S         -5.4480     0.4540    -0.4560 o          1 RZ5      -0.542500
     12 C9           4.5820    -0.4910     0.0110 c3         1 RZ5      -0.095400
     13 O2S         -4.6290    -1.9680    -0.5630 o          1 RZ5      -0.542500
     14 C10          6.0960    -0.1850     0.0300 c3         1 RZ5      -0.074400
     15 N3S         -4.9010    -0.8010     1.5520 n8         1 RZ5      -1.009100
     16 C11          6.9700    -1.4560    -0.0240 c3         1 RZ5      -0.074400
     17 C12          8.4800    -1.1510    -0.0050 c3         1 RZ5      -0.089100
     18 HN           2.0120    -0.5140     0.0010 hn         1 RZ5       0.317500
     19 H2          -1.9800    -2.0290    -0.0770 ha         1 RZ5       0.139500
     20 H3           0.3430    -1.2580    -0.0350 ha         1 RZ5       0.130000
     21 H5          -1.0330     2.8590     0.1420 ha         1 RZ5       0.130000
     22 H6          -3.3660     2.0720     0.1000 ha         1 RZ5       0.139500
     23 H1           3.9440     1.4210    -0.7960 h1         1 RZ5       0.054200
     24 H1'A         3.9380     1.3410     0.9830 h1         1 RZ5       0.054200
     25 H7           4.3330    -1.1330     0.8650 hc         1 RZ5       0.042700
     26 H2'A         4.3390    -1.0540    -0.8990 hc         1 RZ5       0.042700
     27 H8           6.3440     0.4600    -0.8230 hc         1 RZ5       0.043200
     28 H3'A         6.3370     0.3800     0.9390 hc         1 RZ5       0.043200
     29 HN3S        -5.7580    -0.2560     1.6110 hn         1 RZ5       0.476500
     30 HN3A        -5.2560    -1.7550     1.5440 hn         1 RZ5       0.476500
     31 H4           6.7260    -2.1020     0.8280 hc         1 RZ5       0.037700
     32 H4'A         6.7330    -2.0230    -0.9330 hc         1 RZ5       0.037700
     33 H9           8.7570    -0.6150     0.9110 hc         1 RZ5       0.033700
     34 H5'A         9.0590    -2.0820    -0.0450 hc         1 RZ5       0.033700
     35 H5'B         8.7630    -0.5350    -0.8670 hc         1 RZ5       0.033700
     36 C7           1.2770     1.3970     0.0840 c          1 RZ5       0.603700
@<TRIPOS>BOND
     1     1     7 1   
     2     1    11 2   
     3     1    13 2   
     4     1    15 1   
     5     2    10 1   
     6     2    18 1   
     7     2    36 1   
     8     3    36 2   
     9     4     6 ar  
    10     4     8 ar  
    11     4    36 1   
    12     5     6 ar  
    13     5     7 ar  
    14     5    19 1   
    15     6    20 1   
    16     7     9 ar  
    17     8     9 ar  
    18     8    21 1   
    19     9    22 1   
    20    10    12 1   
    21    10    23 1   
    22    10    24 1   
    23    12    14 1   
    24    12    25 1   
    25    12    26 1   
    26    14    16 1   
    27    14    27 1   
    28    14    28 1   
    29    15    29 1   
    30    15    30 1   
    31    16    17 1   
    32    16    31 1   
    33    16    32 1   
    34    17    33 1   
    35    17    34 1   
    36    17    35 1   
@<TRIPOS>SUBSTRUCTURE
     1 RZ5         1 TEMP              0 ****  ****    0 ROOT
