@<TRIPOS>MOLECULE
RZ7
   39    39     1     0     0
SMALL
No Charge or Current Charge


@<TRIPOS>ATOM
      1 S           -7.7900    -1.0200    -0.0650 sy         1 RZ7       1.131600
      2 N           -1.1850     0.7300     1.0040 ns         1 RZ7      -0.502900
      3 O           -1.7200     2.1270    -0.7020 o          1 RZ7      -0.567100
      4 C1          -3.4690     0.6670     0.0630 ca         1 RZ7      -0.103600
      5 C2          -5.1850    -0.8670     0.9160 ca         1 RZ7      -0.018000
      6 C3          -3.8750    -0.3570     0.9550 ca         1 RZ7      -0.093500
      7 C4          -6.1150    -0.3670    -0.0160 ca         1 RZ7      -0.244500
      8 C5          -4.4160     1.1610    -0.8650 ca         1 RZ7      -0.093500
      9 C6          -5.7250     0.6520    -0.9060 ca         1 RZ7      -0.018000
     10 F2'1         1.0560    -1.0490     0.6670 f          1 RZ7      -0.086000
     11 F3'1         2.8210     1.9500    -0.0240 f          1 RZ7      -0.073500
     12 F4'1         3.7540    -1.4650     0.2590 f          1 RZ7      -0.063500
     13 F5'1         5.2970     1.4370    -1.0740 f          1 RZ7      -0.061500
     14 F6'1         6.0050    -1.1180    -2.1470 f          1 RZ7      -0.082000
     15 F2'2         0.8190     0.2980    -1.0110 f          1 RZ7      -0.086000
     16 F3'2         3.0140     0.7350     1.7370 f          1 RZ7      -0.073500
     17 F4'2         3.3670    -0.4490    -1.5930 f          1 RZ7      -0.063500
     18 F5'2         5.6230     0.6610     0.9140 f          1 RZ7      -0.061500
     19 F6'2         6.4570    -1.7840    -0.1220 f          1 RZ7      -0.082000
     20 F6'3         7.5410    -0.0950    -0.9770 f          1 RZ7      -0.082000
     21 C8           0.2330     1.1220     1.1320 c3         1 RZ7       0.056000
     22 O1S         -8.4260    -0.7370    -1.3500 o          1 RZ7      -0.540000
     23 C9           1.2010     0.2430     0.2880 c3         1 RZ7       0.133000
     24 O2S         -7.8570    -2.3370     0.5650 o          1 RZ7      -0.540000
     25 C10          2.7060     0.6740     0.4170 c3         1 RZ7       0.101000
     26 N3S         -8.5950    -0.0590     0.9770 n8         1 RZ7      -1.018100
     27 C11          3.7680    -0.2380    -0.3160 c3         1 RZ7       0.114000
     28 C12          5.2520     0.2990    -0.3380 c3         1 RZ7       0.082000
     29 C13          6.3260    -0.6880    -0.9050 c3         1 RZ7       0.284000
     30 HN          -1.5400     0.0050     1.6140 hn         1 RZ7       0.331500
     31 H2          -5.4720    -1.6530     1.6140 ha         1 RZ7       0.142000
     32 H3          -3.1900    -0.7730     1.6890 ha         1 RZ7       0.131500
     33 H5          -4.1390     1.9480    -1.5640 ha         1 RZ7       0.131500
     34 H6          -6.4320     1.0540    -1.6310 ha         1 RZ7       0.142000
     35 H1           0.3460     2.1740     0.8380 h1         1 RZ7       0.098200
     36 H1'A         0.5140     1.0540     2.1920 h1         1 RZ7       0.098200
     37 HN3S        -9.0270    -0.7610     1.5730 hn         1 RZ7       0.480000
     38 HN3A        -9.3750     0.2300     0.3910 hn         1 RZ7       0.480000
     39 C7          -2.0650     1.2450     0.0720 c          1 RZ7       0.616700
@<TRIPOS>BOND
     1     1     7 1   
     2     1    22 2   
     3     1    24 2   
     4     1    26 1   
     5     2    21 1   
     6     2    30 1   
     7     2    39 1   
     8     3    39 2   
     9     4     6 ar  
    10     4     8 ar  
    11     4    39 1   
    12     5     6 ar  
    13     5     7 ar  
    14     5    31 1   
    15     6    32 1   
    16     7     9 ar  
    17     8     9 ar  
    18     8    33 1   
    19     9    34 1   
    20    10    23 1   
    21    11    25 1   
    22    12    27 1   
    23    13    28 1   
    24    14    29 1   
    25    15    23 1   
    26    16    25 1   
    27    17    27 1   
    28    18    28 1   
    29    19    29 1   
    30    20    29 1   
    31    21    23 1   
    32    21    35 1   
    33    21    36 1   
    34    23    25 1   
    35    25    27 1   
    36    26    37 1   
    37    26    38 1   
    38    27    28 1   
    39    28    29 1   
@<TRIPOS>SUBSTRUCTURE
     1 RZ7         1 TEMP              0 ****  ****    0 ROOT
