@<TRIPOS>MOLECULE
RZ7
   39    39     1     0     0
SMALL
abcg2


@<TRIPOS>ATOM
      1 S           -7.5830    -0.9590    -0.2550 sy         1 RZ7       1.131600
      2 N           -1.2250     1.0070     0.8580 ns         1 RZ7      -0.502900
      3 O           -1.7350     2.2490    -0.9670 o          1 RZ7      -0.567100
      4 C1          -3.4080     0.8060    -0.1170 ca         1 RZ7      -0.103600
      5 C2          -4.8710    -1.0960     0.0940 ca         1 RZ7      -0.018000
      6 C3          -3.5990    -0.5450     0.1490 ca         1 RZ7      -0.093500
      7 C4          -5.9470    -0.2740    -0.1970 ca         1 RZ7      -0.244500
      8 C5          -4.4990     1.6100    -0.4420 ca         1 RZ7      -0.093500
      9 C6          -5.7750     1.0790    -0.4620 ca         1 RZ7      -0.018000
     10 F2'1         1.1700    -0.5490     1.7600 f          1 RZ7      -0.086000
     11 F3'1         2.3920     1.4140    -0.8680 f          1 RZ7      -0.073500
     12 F4'1         3.6570    -1.1660     1.1430 f          1 RZ7      -0.063500
     13 F5'1         5.0100     1.1590    -1.0890 f          1 RZ7      -0.061500
     14 F6'1         5.6770    -1.2800    -2.0180 f          1 RZ7      -0.082000
     15 F2'2         0.6100    -0.5090    -0.3460 f          1 RZ7      -0.086000
     16 F3'2         2.9520     1.5420     1.2420 f          1 RZ7      -0.073500
     17 F4'2         3.1850    -1.1560    -0.9790 f          1 RZ7      -0.063500
     18 F5'2         5.5300     0.5720     0.9390 f          1 RZ7      -0.061500
     19 F6'2         6.0330    -2.0080    -0.0170 f          1 RZ7      -0.082000
     20 F6'3         7.2270    -0.4030    -0.8140 f          1 RZ7      -0.082000
     21 C8           0.1450     1.4170     0.9490 c3         1 RZ7       0.056000
     22 O1S         -8.3930    -0.1850    -1.1830 o          1 RZ7      -0.540000
     23 C9           1.0870     0.2430     0.6680 c3         1 RZ7       0.133000
     24 O2S         -7.4460    -2.3930    -0.4620 o          1 RZ7      -0.540000
     25 C10          2.5100     0.7140     0.2750 c3         1 RZ7       0.101000
     26 N3S         -8.1410    -0.5910     1.2520 n8         1 RZ7      -1.018100
     27 C11          3.5810    -0.3910     0.0490 c3         1 RZ7       0.114000
     28 C12          5.0240     0.1360    -0.2250 c3         1 RZ7       0.082000
     29 C13          6.0080    -0.9260    -0.7850 c3         1 RZ7       0.284000
     30 HN          -1.5780     0.3660     1.5520 hn         1 RZ7       0.331500
     31 H2          -5.0050    -2.1530     0.2760 ha         1 RZ7       0.142000
     32 H3          -2.7610    -1.1920     0.3720 ha         1 RZ7       0.131500
     33 H5          -4.3530     2.6580    -0.6680 ha         1 RZ7       0.131500
     34 H6          -6.6190     1.7150    -0.6930 ha         1 RZ7       0.142000
     35 H1           0.3150     2.2230     0.2370 h1         1 RZ7       0.098200
     36 H1'A         0.3590     1.8100     1.9430 h1         1 RZ7       0.098200
     37 HN3S        -7.8390    -1.2480     1.9640 hn         1 RZ7       0.480000
     38 HN3A        -9.1480    -0.4660     1.2690 hn         1 RZ7       0.480000
     39 C7          -2.0440     1.4180    -0.1320 c          1 RZ7       0.616700
@<TRIPOS>BOND
     1     1     7 1   
     2     1    22 2   
     3     1    24 2   
     4     1    26 1   
     5     2    21 1   
     6     2    30 1   
     7     2    39 1   
     8     3    39 2   
     9     4     6 ar  
    10     4     8 ar  
    11     4    39 1   
    12     5     6 ar  
    13     5     7 ar  
    14     5    31 1   
    15     6    32 1   
    16     7     9 ar  
    17     8     9 ar  
    18     8    33 1   
    19     9    34 1   
    20    10    23 1   
    21    11    25 1   
    22    12    27 1   
    23    13    28 1   
    24    14    29 1   
    25    15    23 1   
    26    16    25 1   
    27    17    27 1   
    28    18    28 1   
    29    19    29 1   
    30    20    29 1   
    31    21    23 1   
    32    21    35 1   
    33    21    36 1   
    34    23    25 1   
    35    25    27 1   
    36    26    37 1   
    37    26    38 1   
    38    27    28 1   
    39    28    29 1   
@<TRIPOS>SUBSTRUCTURE
     1 RZ7         1 TEMP              0 ****  ****    0 ROOT
