@<TRIPOS>MOLECULE
RZ8
   39    39     1     0     0
SMALL
bcc


@<TRIPOS>ATOM
      1 S           -4.8600     0.8070    -0.1440 sy         1 RZ8       1.268200
      2 N            1.7480    -0.6330    -0.0060 ns         1 RZ8      -0.566900
      3 O            0.8700    -2.6060     0.6410 o          1 RZ8      -0.594100
      4 C1          -0.6450    -0.8480     0.1540 ca         1 RZ8      -0.095600
      5 C2          -2.9910    -1.1930    -0.2840 ca         1 RZ8      -0.037500
      6 C3          -1.7020    -1.6910    -0.1730 ca         1 RZ8      -0.115000
      7 C4          -3.2160     0.1530    -0.0350 ca         1 RZ8      -0.251500
      8 C5          -0.8920     0.5020     0.3950 ca         1 RZ8      -0.115000
      9 C6          -2.1780     1.0070     0.3080 ca         1 RZ8      -0.037500
     10 C8           3.1320    -1.0500     0.1000 c3         1 RZ8       0.102000
     11 O1S         -4.8010     2.1910    -0.5900 o          1 RZ8      -0.612800
     12 C9           4.0620     0.1350    -0.1060 c3         1 RZ8      -0.094400
     13 O2S         -5.6610    -0.1350    -0.9130 o          1 RZ8      -0.612800
     14 C10          5.5250    -0.2490     0.0720 c3         1 RZ8      -0.073400
     15 N3S         -5.2800     0.8600     1.4500 n8         1 RZ8      -0.896700
     16 C11          6.4730     0.9240    -0.1450 c3         1 RZ8      -0.075400
     17 C12          7.9350     0.5630     0.0860 c3         1 RZ8      -0.075400
     18 C13          8.8770     1.7410    -0.1220 c3         1 RZ8      -0.089100
     19 HN           1.5610     0.2600    -0.4330 hn         1 RZ8       0.317500
     20 H2          -3.8010    -1.8540    -0.5580 ha         1 RZ8       0.158000
     21 H3          -1.5240    -2.7420    -0.3520 ha         1 RZ8       0.148000
     22 H5          -0.0920     1.1720     0.6800 ha         1 RZ8       0.148000
     23 H6          -2.3570     2.0540     0.5100 ha         1 RZ8       0.158000
     24 H1           3.3000    -1.4850     1.0880 h1         1 RZ8       0.054200
     25 H1'A         3.3510    -1.8310    -0.6340 h1         1 RZ8       0.054200
     26 H7           3.9100     0.5480    -1.1080 hc         1 RZ8       0.043200
     27 H2'A         3.8040     0.9260     0.6040 hc         1 RZ8       0.043200
     28 H8           5.6740    -0.6510     1.0800 hc         1 RZ8       0.042700
     29 H3'A         5.7810    -1.0580    -0.6200 hc         1 RZ8       0.042700
     30 HN3S        -5.5080    -0.0520     1.8320 hn         1 RZ8       0.421300
     31 HN3A        -6.0390     1.5140     1.6170 hn         1 RZ8       0.421300
     32 H4           6.3490     1.3080    -1.1640 hc         1 RZ8       0.037700
     33 H4'A         6.1940     1.7450     0.5240 hc         1 RZ8       0.037700
     34 H9           8.0540     0.1770     1.1030 hc         1 RZ8       0.038200
     35 H5'A         8.2170    -0.2560    -0.5830 hc         1 RZ8       0.038200
     36 H10          9.9150     1.4600     0.0590 hc         1 RZ8       0.032700
     37 H6'A         8.8120     2.1250    -1.1420 hc         1 RZ8       0.032700
     38 H6'B         8.6330     2.5630     0.5540 hc         1 RZ8       0.032700
     39 C7           0.7240    -1.4440     0.2840 c          1 RZ8       0.670700
@<TRIPOS>BOND
     1     1     7 1   
     2     1    11 2   
     3     1    13 2   
     4     1    15 1   
     5     2    10 1   
     6     2    19 1   
     7     2    39 1   
     8     3    39 2   
     9     4     6 ar  
    10     4     8 ar  
    11     4    39 1   
    12     5     6 ar  
    13     5     7 ar  
    14     5    20 1   
    15     6    21 1   
    16     7     9 ar  
    17     8     9 ar  
    18     8    22 1   
    19     9    23 1   
    20    10    12 1   
    21    10    24 1   
    22    10    25 1   
    23    12    14 1   
    24    12    26 1   
    25    12    27 1   
    26    14    16 1   
    27    14    28 1   
    28    14    29 1   
    29    15    30 1   
    30    15    31 1   
    31    16    17 1   
    32    16    32 1   
    33    16    33 1   
    34    17    18 1   
    35    17    34 1   
    36    17    35 1   
    37    18    36 1   
    38    18    37 1   
    39    18    38 1   
@<TRIPOS>SUBSTRUCTURE
     1 RZ8         1 TEMP              0 ****  ****    0 ROOT
