@<TRIPOS>MOLECULE
RZ8
   39    39     1     0     0
SMALL
No Charge or Current Charge


@<TRIPOS>ATOM
      1 S           -4.9900     0.7310    -0.0600 sy         1 RZ8       1.126600
      2 N            1.7770    -0.6830     0.0380 ns         1 RZ8      -0.499900
      3 O            0.9160    -2.7760     0.1290 o          1 RZ8      -0.594100
      4 C1          -0.6760    -0.9740     0.0400 ca         1 RZ8      -0.095600
      5 C2          -3.1060    -1.3200     0.0430 ca         1 RZ8      -0.019500
      6 C3          -1.7980    -1.8340     0.0730 ca         1 RZ8      -0.097000
      7 C4          -3.3180     0.0710    -0.0220 ca         1 RZ8      -0.251500
      8 C5          -0.9020     0.4240    -0.0230 ca         1 RZ8      -0.097000
      9 C6          -2.2100     0.9400    -0.0530 ca         1 RZ8      -0.019500
     10 C8           3.1860    -1.0770     0.0630 c3         1 RZ8       0.102000
     11 O1S         -5.0040     2.0910    -0.5950 o          1 RZ8      -0.542000
     12 C9           4.1180     0.1480     0.0130 c3         1 RZ8      -0.094400
     13 O2S         -5.9460    -0.2860    -0.4910 o          1 RZ8      -0.542000
     14 C10          5.6140    -0.2350     0.0380 c3         1 RZ8      -0.073400
     15 N3S         -5.3420     0.9400     1.5190 n8         1 RZ8      -1.007100
     16 C11          6.5520     0.9910    -0.0110 c3         1 RZ8      -0.075400
     17 C12          8.0480     0.6080     0.0140 c3         1 RZ8      -0.075400
     18 C13          8.9850     1.8310    -0.0360 c3         1 RZ8      -0.089100
     19 HN           1.5520     0.3020    -0.0070 hn         1 RZ8       0.317500
     20 H2          -3.9500    -2.0070     0.0720 ha         1 RZ8       0.140000
     21 H3          -1.6600    -2.9120     0.1220 ha         1 RZ8       0.130000
     22 H5          -0.0770     1.1300    -0.0490 ha         1 RZ8       0.130000
     23 H6          -2.3570     2.0180    -0.0980 ha         1 RZ8       0.140000
     24 H1           3.3780    -1.6490     0.9810 h1         1 RZ8       0.054200
     25 H1'A         3.3870    -1.7280    -0.7980 h1         1 RZ8       0.054200
     26 H7           3.9080     0.7230    -0.8970 hc         1 RZ8       0.043200
     27 H2'A         3.8980     0.8020     0.8670 hc         1 RZ8       0.043200
     28 H8           5.8230    -0.8120     0.9480 hc         1 RZ8       0.042700
     29 H3'A         5.8320    -0.8910    -0.8140 hc         1 RZ8       0.042700
     30 HN3S        -6.2260     0.4400     1.5760 hn         1 RZ8       0.476500
     31 HN3A        -5.6480     1.9110     1.5110 hn         1 RZ8       0.476500
     32 H4           6.3430     1.5680    -0.9210 hc         1 RZ8       0.037700
     33 H4'A         6.3340     1.6460     0.8410 hc         1 RZ8       0.037700
     34 H9           8.2610     0.0330     0.9230 hc         1 RZ8       0.038200
     35 H5'A         8.2710    -0.0460    -0.8390 hc         1 RZ8       0.038200
     36 H10         10.0330     1.5100    -0.0160 hc         1 RZ8       0.032700
     37 H6'A         8.8200     2.4090    -0.9530 hc         1 RZ8       0.032700
     38 H6'B         8.8110     2.4880     0.8250 hc         1 RZ8       0.032700
     39 C7           0.7210    -1.5690     0.0730 c          1 RZ8       0.603700
@<TRIPOS>BOND
     1     1     7 1   
     2     1    11 2   
     3     1    13 2   
     4     1    15 1   
     5     2    10 1   
     6     2    19 1   
     7     2    39 1   
     8     3    39 2   
     9     4     6 ar  
    10     4     8 ar  
    11     4    39 1   
    12     5     6 ar  
    13     5     7 ar  
    14     5    20 1   
    15     6    21 1   
    16     7     9 ar  
    17     8     9 ar  
    18     8    22 1   
    19     9    23 1   
    20    10    12 1   
    21    10    24 1   
    22    10    25 1   
    23    12    14 1   
    24    12    26 1   
    25    12    27 1   
    26    14    16 1   
    27    14    28 1   
    28    14    29 1   
    29    15    30 1   
    30    15    31 1   
    31    16    17 1   
    32    16    32 1   
    33    16    33 1   
    34    17    18 1   
    35    17    34 1   
    36    17    35 1   
    37    18    36 1   
    38    18    37 1   
    39    18    38 1   
@<TRIPOS>SUBSTRUCTURE
     1 RZ8         1 TEMP              0 ****  ****    0 ROOT
