@<TRIPOS>MOLECULE
RZ9
   35    38     1     0     0
SMALL
No Charge or Current Charge


@<TRIPOS>ATOM
      1 C02        -46.2870   -33.6780    -0.3200 c          1 RZ9       0.660100
      2 C05        -45.1830   -31.7720    -0.0400 cc         1 RZ9       0.515600
      3 C06        -44.7770   -30.5100     0.6870 c6         1 RZ9      -0.107000
      4 C07        -45.7350   -29.3290     0.3660 c6         1 RZ9      -0.065400
      5 C08        -47.1340   -29.5210     1.0120 c6         1 RZ9      -0.102400
      6 C09        -47.0880   -30.2330     2.3920 c6         1 RZ9       0.209800
      7 C11        -45.6340   -30.0010     4.4250 ca         1 RZ9       0.430900
      8 C12        -46.2730   -28.9800     5.1550 ca         1 RZ9      -0.239800
      9 C13        -47.0900   -27.8750     4.7390 cc         1 RZ9      -0.206200
     10 C14        -47.4290   -27.1770     5.8850 cd         1 RZ9      -0.176100
     11 C16        -46.1250   -28.9120     6.5180 ca         1 RZ9       0.142500
     12 C18        -44.7710   -30.7550     6.4210 ca         1 RZ9       0.175900
     13 C20        -44.6320   -30.7370     2.2240 c6         1 RZ9       0.223800
     14 N03        -45.4720   -33.3860    -1.3730 ns         1 RZ9      -0.402400
     15 N04        -44.7870   -32.2050    -1.2030 n2         1 RZ9      -0.470300
     16 N10        -45.7460   -30.1300     3.0240 nh         1 RZ9      -0.762300
     17 N15        -46.8360   -27.8240     6.9980 na         1 RZ9      -0.323400
     18 N17        -45.3680   -29.8060     7.1800 nb         1 RZ9      -0.227000
     19 N19        -44.8610   -30.8950     5.0770 nb         1 RZ9      -0.302000
     20 O01        -47.0180   -34.6410    -0.1640 o          1 RZ9      -0.501000
     21 O21        -46.0820   -32.6350     0.5170 os         1 RZ9      -0.409700
     22 H061       -43.7820   -30.2370     0.3120 hc         1 RZ9       0.087700
     23 H072       -45.8330   -29.1900    -0.7200 hc         1 RZ9       0.056200
     24 H071       -45.2910   -28.4000     0.7520 hc         1 RZ9       0.056200
     25 H082       -47.6090   -28.5370     1.1260 hc         1 RZ9       0.055200
     26 H081       -47.7860   -30.0940     0.3380 hc         1 RZ9       0.055200
     27 H091       -47.8740   -29.8170     3.0400 h1         1 RZ9       0.066200
     28 H092       -47.3440   -31.2940     2.2580 h1         1 RZ9       0.066200
     29 H131       -47.3770   -27.6060     3.7240 ha         1 RZ9       0.203000
     30 H141       -48.0330   -26.2760     5.9900 h4         1 RZ9       0.219000
     31 H181       -44.1520   -31.4800     6.9460 h5         1 RZ9       0.046100
     32 H202       -44.5360   -31.8130     2.4400 h1         1 RZ9       0.080700
     33 H201       -43.6840   -30.2750     2.5390 h1         1 RZ9       0.080700
     34 H031       -45.4260   -34.0210    -2.1730 hn         1 RZ9       0.499000
     35 H151       -46.9040   -27.5430     7.9720 hn         1 RZ9       0.363000
@<TRIPOS>BOND
     1     1    14 1   
     2     1    20 2   
     3     1    21 1   
     4     2     3 1   
     5     2    15 2   
     6     2    21 1   
     7     3     4 1   
     8     3    13 1   
     9     3    22 1   
    10     4     5 1   
    11     4    23 1   
    12     4    24 1   
    13     5     6 1   
    14     5    25 1   
    15     5    26 1   
    16     6    16 1   
    17     6    27 1   
    18     6    28 1   
    19     7     8 ar  
    20     7    16 1   
    21     7    19 ar  
    22     8     9 1   
    23     8    11 ar  
    24     9    10 2   
    25     9    29 1   
    26    10    17 1   
    27    10    30 1   
    28    11    17 1   
    29    11    18 ar  
    30    12    18 ar  
    31    12    19 ar  
    32    12    31 1   
    33    13    16 1   
    34    13    32 1   
    35    13    33 1   
    36    14    15 1   
    37    14    34 1   
    38    17    35 1   
@<TRIPOS>SUBSTRUCTURE
     1 RZ9         1 TEMP              0 ****  ****    0 ROOT
