@<TRIPOS>MOLECULE
RZ9
   35    38     1     0     0
SMALL
abcg2


@<TRIPOS>ATOM
      1 C02        -46.3650   -33.0110    -1.3400 c          1 RZ9       0.660100
      2 C05        -45.1220   -31.8370     0.0700 cc         1 RZ9       0.515600
      3 C06        -44.8280   -30.9830     1.2450 c6         1 RZ9      -0.107000
      4 C07        -45.4660   -29.5790     1.1350 c6         1 RZ9      -0.065400
      5 C08        -46.9790   -29.5600     1.3910 c6         1 RZ9      -0.102400
      6 C09        -47.3440   -30.5190     2.5430 c6         1 RZ9       0.209800
      7 C11        -45.7530   -30.1160     4.4130 ca         1 RZ9       0.430900
      8 C12        -46.4640   -29.0180     4.9700 ca         1 RZ9      -0.239800
      9 C13        -47.6440   -28.2350     4.7040 cc         1 RZ9      -0.206200
     10 C14        -47.7180   -27.2760     5.6760 cd         1 RZ9      -0.176100
     11 C16        -45.8710   -28.4520     6.1250 ca         1 RZ9       0.142500
     12 C18        -44.1540   -29.8520     6.0760 ca         1 RZ9       0.175900
     13 C20        -45.2410   -31.6790     2.5900 c6         1 RZ9       0.223800
     14 N03        -45.0570   -33.0170    -1.6730 ns         1 RZ9      -0.402400
     15 N04        -44.2830   -32.2900    -0.7910 n2         1 RZ9      -0.470300
     16 N10        -46.1690   -30.8470     3.3410 nh         1 RZ9      -0.762300
     17 N15        -46.6490   -27.4140     6.5350 na         1 RZ9      -0.323400
     18 N17        -44.7280   -28.8400     6.7110 nb         1 RZ9      -0.227000
     19 N19        -44.5920   -30.4880     4.9890 nb         1 RZ9      -0.302000
     20 O01        -47.3350   -33.5220    -1.8450 o          1 RZ9      -0.501000
     21 O21        -46.4080   -32.2290    -0.1890 os         1 RZ9      -0.409700
     22 H061       -43.7460   -30.8590     1.2340 hc         1 RZ9       0.087700
     23 H072       -45.2340   -29.1470     0.1610 hc         1 RZ9       0.056200
     24 H071       -44.9690   -28.9560     1.8800 hc         1 RZ9       0.056200
     25 H082       -47.2770   -28.5390     1.6350 hc         1 RZ9       0.055200
     26 H081       -47.5280   -29.8500     0.4940 hc         1 RZ9       0.055200
     27 H091       -48.1340   -30.1320     3.1750 h1         1 RZ9       0.066200
     28 H092       -47.7050   -31.4640     2.1350 h1         1 RZ9       0.066200
     29 H131       -48.3520   -28.3350     3.9020 ha         1 RZ9       0.203000
     30 H141       -48.4480   -26.4990     5.8270 h4         1 RZ9       0.219000
     31 H181       -43.2150   -30.2120     6.4860 h5         1 RZ9       0.046100
     32 H202       -45.7300   -32.6330     2.3870 h1         1 RZ9       0.080700
     33 H201       -44.3610   -31.8650     3.1930 h1         1 RZ9       0.080700
     34 H031       -44.6420   -33.5010    -2.4530 hn         1 RZ9       0.499000
     35 H151       -46.4520   -26.8290     7.3330 hn         1 RZ9       0.363000
@<TRIPOS>BOND
     1     1    14 1   
     2     1    20 2   
     3     1    21 1   
     4     2     3 1   
     5     2    15 2   
     6     2    21 1   
     7     3     4 1   
     8     3    13 1   
     9     3    22 1   
    10     4     5 1   
    11     4    23 1   
    12     4    24 1   
    13     5     6 1   
    14     5    25 1   
    15     5    26 1   
    16     6    16 1   
    17     6    27 1   
    18     6    28 1   
    19     7     8 ar  
    20     7    16 1   
    21     7    19 ar  
    22     8     9 1   
    23     8    11 ar  
    24     9    10 2   
    25     9    29 1   
    26    10    17 1   
    27    10    30 1   
    28    11    17 1   
    29    11    18 ar  
    30    12    18 ar  
    31    12    19 ar  
    32    12    31 1   
    33    13    16 1   
    34    13    32 1   
    35    13    33 1   
    36    14    15 1   
    37    14    34 1   
    38    17    35 1   
@<TRIPOS>SUBSTRUCTURE
     1 RZ9         1 TEMP              0 ****  ****    0 ROOT
