@<TRIPOS>MOLECULE
RZA
   42    44     1     0     0
SMALL
bcc


@<TRIPOS>ATOM
      1 N3          -6.0520     0.2880    20.3410 nh         1 RZA      -0.777300
      2 C4          -2.8040    -1.9580    15.9610 cy         1 RZA       0.219800
      3 N2          -4.6530    -0.4960    18.7340 nb         1 RZA      -0.836000
      4 C7          -4.1880    -2.8010    20.1740 ca         1 RZA      -0.038300
      5 C6          -3.5260    -2.6060    18.9450 ca         1 RZA      -0.248300
      6 C9          -5.2460    -0.6850    19.9070 ca         1 RZA       0.769200
      7 C13         -6.7280     0.2960    21.6250 c5         1 RZA       0.212300
      8 C8          -5.0510    -1.8690    20.6700 ca         1 RZA      -0.338300
      9 C2          -3.6960    -0.0190    16.1700 cy         1 RZA       0.189500
     10 C3          -2.9970    -0.7700    15.0100 cy         1 RZA       0.108100
     11 N1          -3.2750    -1.1090    17.0530 nn         1 RZA      -0.771300
     12 C5          -3.8250    -1.4090    18.2410 ca         1 RZA       0.787200
     13 C10         -6.3300     1.4860    19.5570 c5         1 RZA       0.212300
     14 C11         -7.4970     2.1220    20.2880 c5         1 RZA       0.114600
     15 C12         -7.1980     1.7500    21.7390 c5         1 RZA       0.114600
     16 O1          -8.3300     1.9410    22.5370 oh         1 RZA      -0.589800
     17 O2          -8.6850     1.5150    19.8380 oh         1 RZA      -0.589800
     18 F1          -4.6610    -4.1460    22.0570 f          1 RZA      -0.227967
     19 F2          -4.1800    -5.1490    20.2190 f          1 RZA      -0.227967
     20 F3          -2.6390    -4.1300    21.3260 f          1 RZA      -0.227967
     21 C15         -2.5610    -3.5210    18.4750 cg         1 RZA       0.253800
     22 N4          -1.7560    -4.2620    18.1020 n1         1 RZA      -0.376800
     23 O3          -3.7520    -1.0820    13.8820 oh         1 RZA      -0.576800
     24 H1          -3.4770    -2.7930    15.7440 h1         1 RZA       0.077700
     25 H2          -1.7870    -2.3310    16.0640 h1         1 RZA       0.077700
     26 H3          -7.5800    -0.3910    21.6400 h1         1 RZA       0.066950
     27 H4          -6.0530     0.0240    22.4380 h1         1 RZA       0.066950
     28 H5          -5.5700    -2.0190    21.6030 ha         1 RZA       0.159000
     29 H6          -3.6710     1.7340    17.4240 hc         1 RZA       0.046700
     30 H7          -2.1100     1.3510    16.6840 hc         1 RZA       0.046700
     31 H8          -3.4060     2.0520    15.7090 hc         1 RZA       0.046700
     32 H9          -4.7840    -0.0090    16.0410 h1         1 RZA       0.072700
     33 H10         -2.0440    -0.2980    14.7490 h1         1 RZA       0.053700
     34 H11         -6.5700     1.2400    18.5220 h1         1 RZA       0.066950
     35 H12         -5.4670     2.1570    19.5460 h1         1 RZA       0.066950
     36 H13         -7.5160     3.2080    20.1400 h1         1 RZA       0.054200
     37 H14         -6.3540     2.3650    22.0790 h1         1 RZA       0.054200
     38 H15         -8.1020     1.7720    23.4560 ho         1 RZA       0.422500
     39 H16         -9.3940     1.7450    20.4490 ho         1 RZA       0.422500
     40 H17         -3.7920    -0.3060    13.3150 ho         1 RZA       0.414000
     41 C14         -3.9220    -4.0600    20.9520 c3         1 RZA       0.716200
     42 C1          -3.1890     1.3590    16.5230 c3         1 RZA      -0.088100
@<TRIPOS>BOND
     1     1     6 1   
     2     1     7 1   
     3     1    13 1   
     4     2    10 1   
     5     2    11 1   
     6     2    24 1   
     7     2    25 1   
     8     3     6 ar  
     9     3    12 ar  
    10     4     5 ar  
    11     4     8 ar  
    12     4    41 1   
    13     5    12 ar  
    14     5    21 1   
    15     6     8 ar  
    16     7    15 1   
    17     7    26 1   
    18     7    27 1   
    19     8    28 1   
    20     9    10 1   
    21     9    11 1   
    22     9    32 1   
    23     9    42 1   
    24    10    23 1   
    25    10    33 1   
    26    11    12 1   
    27    13    14 1   
    28    13    34 1   
    29    13    35 1   
    30    14    15 1   
    31    14    17 1   
    32    14    36 1   
    33    15    16 1   
    34    15    37 1   
    35    16    38 1   
    36    17    39 1   
    37    18    41 1   
    38    19    41 1   
    39    20    41 1   
    40    21    22 3   
    41    23    40 1   
    42    29    42 1   
    43    30    42 1   
    44    31    42 1   
@<TRIPOS>SUBSTRUCTURE
     1 RZA         1 TEMP              0 ****  ****    0 ROOT
