@<TRIPOS>MOLECULE
RZA
   42    44     1     0     0
SMALL
No Charge or Current Charge


@<TRIPOS>ATOM
      1 N3          -6.1410     0.2630    20.2940 nh         1 RZA      -0.777300
      2 C4          -3.3730    -2.0520    15.7510 cy         1 RZA       0.219800
      3 N2          -4.7190    -0.5630    18.6900 nb         1 RZA      -0.836000
      4 C7          -4.0510    -2.8330    20.2560 ca         1 RZA      -0.038300
      5 C6          -3.4820    -2.6230    18.9730 ca         1 RZA      -0.183000
      6 C9          -5.2540    -0.7480    19.8950 ca         1 RZA       0.703900
      7 C13         -6.7330     0.3720    21.6530 c5         1 RZA       0.212300
      8 C8          -4.9600    -1.8530    20.7020 ca         1 RZA      -0.255000
      9 C2          -3.5410     0.0460    16.1510 cy         1 RZA       0.189500
     10 C3          -2.9060    -0.7750    14.9710 cy         1 RZA       0.131300
     11 N1          -3.3770    -1.1890    16.9750 nn         1 RZA      -0.771300
     12 C5          -3.8580    -1.4770    18.2340 ca         1 RZA       0.721900
     13 C10         -6.6260     1.3530    19.3930 c5         1 RZA       0.212300
     14 C11         -7.8070     1.9920    20.2000 c5         1 RZA       0.137800
     15 C12         -7.2840     1.8370    21.6620 c5         1 RZA       0.137800
     16 O1          -8.3310     2.0590    22.6250 oh         1 RZA      -0.652000
     17 O2          -9.0600     1.3090    20.0150 oh         1 RZA      -0.652000
     18 F1          -4.3810    -4.0660    22.3110 f          1 RZA      -0.106667
     19 F2          -3.9970    -5.2220    20.5200 f          1 RZA      -0.106667
     20 F3          -2.3900    -4.0890    21.4570 f          1 RZA      -0.106667
     21 C15         -2.5130    -3.5350    18.4390 cg         1 RZA       0.343000
     22 N4          -1.7260    -4.2890    18.0190 n1         1 RZA      -0.466000
     23 O3          -3.4550    -0.5740    13.6640 oh         1 RZA      -0.639000
     24 H1          -4.3600    -2.4180    15.4440 h1         1 RZA       0.077700
     25 H2          -2.6400    -2.8660    15.7180 h1         1 RZA       0.077700
     26 H3          -7.5370    -0.3630    21.7970 h1         1 RZA       0.066950
     27 H4          -5.9840     0.2330    22.4460 h1         1 RZA       0.066950
     28 H5          -5.4380    -1.9460    21.6700 ha         1 RZA       0.141000
     29 H6          -3.2560     1.7080    17.5350 hc         1 RZA       0.046700
     30 H7          -1.7490     1.0970    16.8280 hc         1 RZA       0.046700
     31 H8          -2.8490     2.0920    15.8530 hc         1 RZA       0.046700
     32 H9          -4.5930     0.2950    15.9570 h1         1 RZA       0.072700
     33 H10         -1.8130    -0.6900    14.9350 h1         1 RZA       0.053700
     34 H11         -6.9730     0.9730    18.4220 h1         1 RZA       0.066950
     35 H12         -5.8340     2.0910    19.2080 h1         1 RZA       0.066950
     36 H13         -7.9210     3.0520    19.9360 h1         1 RZA       0.054200
     37 H14         -6.4580     2.5430    21.8310 h1         1 RZA       0.054200
     38 H15         -7.9050     2.1240    23.5100 ho         1 RZA       0.461500
     39 H16         -9.4980     1.3660    20.8960 ho         1 RZA       0.461500
     40 H17         -3.1350     0.2970    13.3370 ho         1 RZA       0.453000
     41 C14         -3.7050    -4.0550    21.1380 c3         1 RZA       0.352300
     42 C1          -2.8050     1.3090    16.6190 c3         1 RZA      -0.088100
@<TRIPOS>BOND
     1     1     6 1   
     2     1     7 1   
     3     1    13 1   
     4     2    10 1   
     5     2    11 1   
     6     2    24 1   
     7     2    25 1   
     8     3     6 ar  
     9     3    12 ar  
    10     4     5 ar  
    11     4     8 ar  
    12     4    41 1   
    13     5    12 ar  
    14     5    21 1   
    15     6     8 ar  
    16     7    15 1   
    17     7    26 1   
    18     7    27 1   
    19     8    28 1   
    20     9    10 1   
    21     9    11 1   
    22     9    32 1   
    23     9    42 1   
    24    10    23 1   
    25    10    33 1   
    26    11    12 1   
    27    13    14 1   
    28    13    34 1   
    29    13    35 1   
    30    14    15 1   
    31    14    17 1   
    32    14    36 1   
    33    15    16 1   
    34    15    37 1   
    35    16    38 1   
    36    17    39 1   
    37    18    41 1   
    38    19    41 1   
    39    20    41 1   
    40    21    22 3   
    41    23    40 1   
    42    29    42 1   
    43    30    42 1   
    44    31    42 1   
@<TRIPOS>SUBSTRUCTURE
     1 RZA         1 TEMP              0 ****  ****    0 ROOT
