@<TRIPOS>MOLECULE
RZB
   41    43     1     0     0
SMALL
bcc


@<TRIPOS>ATOM
      1 C1         -23.0690    -0.2050    -1.9200 ca         1 RZB      -0.090500
      2 C2         -22.9770     1.1790    -1.9710 ca         1 RZB      -0.009600
      3 C3         -24.1050     1.9650    -1.8210 ca         1 RZB      -0.090500
      4 C11        -29.9990     1.3830    -0.1710 ca         1 RZB      -0.095500
      5 C12        -29.8570     0.9670    -1.4930 ca         1 RZB      -0.091000
      6 C13        -28.7190     0.2890    -1.8990 ca         1 RZB      -0.147000
      7 C14        -31.1810     2.1240     0.2550 cc         1 RZB       0.509500
      8 C21        -35.3850     2.9300     0.0770 c3         1 RZB       0.179500
      9 C23        -36.6910     3.6830    -0.1820 c3         1 RZB      -0.211400
     10 C24        -36.9240     4.0550    -1.6600 c          1 RZB       0.939600
     11 C4         -25.3420     1.3700    -1.6150 ca         1 RZB      -0.171500
     12 C5         -25.4390    -0.0150    -1.5580 ca         1 RZB       0.146100
     13 C6         -24.3010    -0.8010    -1.7110 ca         1 RZB      -0.171500
     14 O7         -26.6120    -0.6820    -1.3790 os         1 RZB      -0.252200
     15 C8         -27.7200     0.0180    -0.9770 ca         1 RZB       0.085100
     16 C9         -27.8500     0.4140     0.3460 ca         1 RZB      -0.147000
     17 C10        -28.9880     1.0920     0.7450 ca         1 RZB      -0.091000
     18 N15        -31.4450     2.4680     1.5270 nc         1 RZB      -0.409000
     19 N16        -32.5550     3.1300     1.5030 nd         1 RZB      -0.197800
     20 N17        -32.9360     3.1790     0.2610 na         1 RZB       0.302900
     21 N18        -32.1210     2.5680    -0.5600 nd         1 RZB      -0.493800
     22 CL1        -21.4330     1.9280    -2.2240 cl         1 RZB      -0.123400
     23 N22        -35.3030     1.7600    -0.7830 n8         1 RZB      -0.869800
     24 O25        -36.1280     4.8840    -2.1530 o          1 RZB      -0.837800
     25 O26        -37.8860     3.5140    -2.2380 o          1 RZB      -0.837800
     26 H1         -22.1880    -0.8210    -2.0380 ha         1 RZB       0.144500
     27 H2         -24.0350     3.0440    -1.8650 ha         1 RZB       0.144500
     28 H3         -30.6330     1.1770    -2.2170 ha         1 RZB       0.159000
     29 H4         -28.6090    -0.0290    -2.9280 ha         1 RZB       0.143500
     30 H5         -34.0640     4.0780    -1.2060 h1         1 RZB       0.107700
     31 H6         -34.2570     4.7470     0.4200 h1         1 RZB       0.107700
     32 H7         -35.3800     2.6680     1.1460 h1         1 RZB      -0.010300
     33 H8         -36.6880     4.5910     0.4290 hc         1 RZB       0.025700
     34 H9         -37.5090     3.0600     0.1880 hc         1 RZB       0.025700
     35 H10        -26.2140     2.0020    -1.5060 ha         1 RZB       0.152500
     36 H11        -24.3790    -1.8790    -1.6680 ha         1 RZB       0.152500
     37 H12        -27.0670     0.1940     1.0620 ha         1 RZB       0.143500
     38 H13        -29.0850     1.4020     1.7770 ha         1 RZB       0.159000
     39 H14        -34.5990     1.1160    -0.4420 hn         1 RZB       0.331800
     40 H15        -36.1770     1.2510    -0.7420 hn         1 RZB       0.331800
     41 C20        -34.1710     3.8270    -0.1560 c3         1 RZB       0.056300
@<TRIPOS>BOND
     1     1     2 ar  
     2     1    13 ar  
     3     1    26 1   
     4     2     3 ar  
     5     2    22 1   
     6     3    11 ar  
     7     3    27 1   
     8     4     5 ar  
     9     4     7 1   
    10     4    17 ar  
    11     5     6 ar  
    12     5    28 1   
    13     6    15 ar  
    14     6    29 1   
    15     7    18 1   
    16     7    21 2   
    17     8     9 1   
    18     8    23 1   
    19     8    32 1   
    20     8    41 1   
    21     9    10 1   
    22     9    33 1   
    23     9    34 1   
    24    10    24 1   
    25    10    25 1   
    26    11    12 ar  
    27    11    35 1   
    28    12    13 ar  
    29    12    14 1   
    30    13    36 1   
    31    14    15 1   
    32    15    16 ar  
    33    16    17 ar  
    34    16    37 1   
    35    17    38 1   
    36    18    19 2   
    37    19    20 1   
    38    20    21 1   
    39    20    41 1   
    40    23    39 1   
    41    23    40 1   
    42    30    41 1   
    43    31    41 1   
@<TRIPOS>SUBSTRUCTURE
     1 RZB         1 TEMP              0 ****  ****    0 ROOT
