@<TRIPOS>MOLECULE
RZB
   41    43     1     0     0
SMALL
No Charge or Current Charge


@<TRIPOS>ATOM
      1 C1         -22.9580    -0.5890    -1.2670 ca         1 RZB      -0.072500
      2 C2         -22.6080     0.7690    -1.1690 ca         1 RZB       0.082000
      3 C3         -23.5750     1.7650    -1.3870 ca         1 RZB      -0.072500
      4 C11        -29.9850     1.6470    -0.7190 ca         1 RZB      -0.095500
      5 C12        -29.9160     1.1280    -2.0340 ca         1 RZB      -0.073000
      6 C13        -28.7590     0.4680    -2.4860 ca         1 RZB      -0.129000
      7 C14        -31.2010     2.3400    -0.2500 cc         1 RZB       0.509500
      8 C21        -35.5460     2.9160     0.3280 c3         1 RZB       0.179500
      9 C23        -36.9180     3.6310     0.2580 c3         1 RZB      -0.211400
     10 C24        -37.3340     3.9710    -1.1840 c          1 RZB       0.729000
     11 C4         -24.8990     1.4030    -1.7000 ca         1 RZB      -0.153500
     12 C5         -25.2540     0.0420    -1.7850 ca         1 RZB       0.146100
     13 C6         -24.2820    -0.9510    -1.5800 ca         1 RZB      -0.153500
     14 O7         -26.5380    -0.3400    -2.1030 os         1 RZB      -0.252200
     15 C8         -27.6520     0.3220    -1.6390 ca         1 RZB       0.085100
     16 C9         -27.7090     0.8200    -0.3250 ca         1 RZB      -0.129000
     17 C10        -28.8640     1.4800     0.1310 ca         1 RZB      -0.073000
     18 N15        -31.2810     2.8440     1.0170 nc         1 RZB      -0.409000
     19 N16        -32.4600     3.3870     1.1160 nd         1 RZB      -0.197800
     20 N17        -33.0550     3.1770    -0.1010 na         1 RZB       0.273600
     21 N18        -32.2670     2.5190    -0.9960 nd         1 RZB      -0.493800
     22 Cl1        -20.9540     1.2230    -0.7790 cl         1 RZB      -0.215000
     23 N22        -35.6760     1.5070    -0.0870 n8         1 RZB      -0.980200
     24 O25        -36.9310     5.0220    -1.6620 o          1 RZB      -0.732500
     25 O26        -38.0570     3.1920    -1.7860 o          1 RZB      -0.732500
     26 H1         -22.2060    -1.3570    -1.1020 ha         1 RZB       0.126500
     27 H2         -23.2990     2.8150    -1.3170 ha         1 RZB       0.126500
     28 H3         -30.7590     1.2320    -2.7130 ha         1 RZB       0.141000
     29 H4         -28.7210     0.0720    -3.4980 ha         1 RZB       0.125500
     30 H5         -34.5590     3.5800    -1.5040 h1         1 RZB       0.107700
     31 H6         -34.4420     4.7270    -0.1620 h1         1 RZB       0.107700
     32 H7         -35.2760     2.8840     1.3910 h1         1 RZB      -0.010300
     33 H8         -36.7710     4.5610     0.8210 hc         1 RZB       0.025700
     34 H9         -37.6520     2.9610     0.7230 hc         1 RZB       0.025700
     35 H10        -25.6410     2.1770    -1.8790 ha         1 RZB       0.134500
     36 H11        -24.5550    -2.0000    -1.6580 ha         1 RZB       0.134500
     37 H12        -26.8640     0.6930     0.3470 ha         1 RZB       0.125500
     38 H13        -28.8800     1.8590     1.1510 ha         1 RZB       0.141000
     39 H14        -34.8560     0.9830     0.2390 hn         1 RZB       0.387000
     40 H15        -36.4550     1.0830     0.4270 hn         1 RZB       0.387000
     41 C20        -34.4060     3.6630    -0.4230 c3         1 RZB       0.085600
@<TRIPOS>BOND
     1     1     2 ar  
     2     1    13 ar  
     3     1    26 1   
     4     2     3 ar  
     5     2    22 1   
     6     3    11 ar  
     7     3    27 1   
     8     4     5 ar  
     9     4     7 1   
    10     4    17 ar  
    11     5     6 ar  
    12     5    28 1   
    13     6    15 ar  
    14     6    29 1   
    15     7    18 1   
    16     7    21 2   
    17     8     9 1   
    18     8    23 1   
    19     8    32 1   
    20     8    41 1   
    21     9    10 1   
    22     9    33 1   
    23     9    34 1   
    24    10    24 1   
    25    10    25 1   
    26    11    12 ar  
    27    11    35 1   
    28    12    13 ar  
    29    12    14 1   
    30    13    36 1   
    31    14    15 1   
    32    15    16 ar  
    33    16    17 ar  
    34    16    37 1   
    35    17    38 1   
    36    18    19 2   
    37    19    20 1   
    38    20    21 1   
    39    20    41 1   
    40    23    39 1   
    41    23    40 1   
    42    30    41 1   
    43    31    41 1   
@<TRIPOS>SUBSTRUCTURE
     1 RZB         1 TEMP              0 ****  ****    0 ROOT
