@<TRIPOS>MOLECULE
RZC
   48    50     1     0     0
SMALL
No Charge or Current Charge


@<TRIPOS>ATOM
      1 C02         20.6340   -16.1530    -7.2940 ce         1 RZC       0.684800
      2 C04         20.7450   -17.5560    -6.9370 cc         1 RZC      -0.326900
      3 C05         21.4390   -18.1360    -5.8950 cd         1 RZC      -0.089000
      4 C06         21.3310   -19.5620    -5.8090 cd         1 RZC      -0.059000
      5 C07         21.9840   -20.4120    -4.7770 ca         1 RZC       0.013000
      6 C08         21.7840   -21.8110    -4.7640 ca         1 RZC      -0.123000
      7 C09         22.4010   -22.6190    -3.7970 ca         1 RZC      -0.082000
      8 C10         23.2270   -22.0440    -2.8230 ca         1 RZC      -0.157000
      9 C11         23.4410   -20.6570    -2.8020 ca         1 RZC      -0.025000
     10 C13         24.5580   -18.8530    -1.3430 c          1 RZC       0.578100
     11 C14         25.5660   -18.7710    -0.1440 c3         1 RZC       0.111000
     12 C15         25.1510   -17.7320     0.9380 c3         1 RZC      -0.096600
     13 C17         24.8330   -20.7870     1.2190 ca         1 RZC       0.137100
     14 C18         25.3060   -21.8900     1.9490 ca         1 RZC      -0.131000
     15 C19         24.4200   -22.7060     2.6740 ca         1 RZC      -0.067000
     16 C20         23.0440   -22.4250     2.6690 ca         1 RZC       0.093000
     17 C22         22.5600   -21.3250     1.9320 ca         1 RZC       0.156000
     18 C24         23.4480   -20.5100     1.2100 ca         1 RZC      -0.169000
     19 C25         26.9600   -18.3990    -0.7030 c3         1 RZC      -0.096600
     20 C27         22.8230   -19.8500    -3.7840 ca         1 RZC      -0.124000
     21 C28         20.5260   -20.0590    -6.8100 cc         1 RZC      -0.232000
     22 N01         21.1750   -15.2460    -6.5990 n2         1 RZC      -0.832100
     23 N03         19.9980   -15.7790    -8.4120 nv         1 RZC      -1.038200
     24 N12         24.2910   -20.1440    -1.7850 ns         1 RZC      -0.138000
     25 O16         25.7790   -20.0520     0.5200 os         1 RZC      -0.374100
     26 O26         24.0170   -17.8520    -1.8060 o          1 RZC      -0.578100
     27 S29         19.9050   -18.7950    -7.8590 ss         1 RZC       0.241000
     28 Cl1         21.9520   -23.4660     3.5840 cl         1 RZC      -0.175000
     29 Cl2         20.8370   -20.9490     1.8900 cl         1 RZC      -0.170000
     30 H051        22.0210   -17.5440    -5.1990 ha         1 RZC       0.147000
     31 H081        21.1500   -22.2920    -5.5020 ha         1 RZC       0.117000
     32 H091        22.2370   -23.6950    -3.8040 ha         1 RZC       0.116000
     33 H101        23.6980   -22.6820    -2.0770 ha         1 RZC       0.114000
     34 H153        25.8130   -17.7960     1.8110 hc         1 RZC       0.059533
     35 H151        25.2230   -16.7130     0.5390 hc         1 RZC       0.059533
     36 H152        24.1220   -17.8700     1.2820 hc         1 RZC       0.059533
     37 H181        26.3700   -22.1130     1.9530 ha         1 RZC       0.136000
     38 H191        24.7980   -23.5550     3.2380 ha         1 RZC       0.136000
     39 H241        23.0300   -19.6840     0.6480 ha         1 RZC       0.146000
     40 H251        27.7040   -18.3500     0.1010 hc         1 RZC       0.059533
     41 H252        27.2970   -19.1440    -1.4350 hc         1 RZC       0.059533
     42 H253        26.9340   -17.4220    -1.2020 hc         1 RZC       0.059533
     43 H271        23.0040   -18.7850    -3.7840 ha         1 RZC       0.148000
     44 H281        20.2400   -21.0780    -7.0270 h4         1 RZC       0.153000
     45 H011        21.5950   -15.6990    -5.7800 hn         1 RZC       0.391400
     46 H032        20.2090   -14.8310    -8.6940 hn         1 RZC       0.471000
     47 H121        24.7920   -20.8590    -1.2720 hn         1 RZC       0.167000
     48 H031        19.9670   -16.4650    -9.1540 hn         1 RZC       0.471000
@<TRIPOS>BOND
     1     1     2 1   
     2     1    22 2   
     3     1    23 1   
     4     2     3 2   
     5     2    27 1   
     6     3     4 1   
     7     3    30 1   
     8     4     5 1   
     9     4    21 2   
    10     5     6 ar  
    11     5    20 ar  
    12     6     7 ar  
    13     6    31 1   
    14     7     8 ar  
    15     7    32 1   
    16     8     9 ar  
    17     8    33 1   
    18     9    20 ar  
    19     9    24 1   
    20    10    11 1   
    21    10    24 1   
    22    10    26 2   
    23    11    12 1   
    24    11    19 1   
    25    11    25 1   
    26    12    34 1   
    27    12    35 1   
    28    12    36 1   
    29    13    14 ar  
    30    13    18 ar  
    31    13    25 1   
    32    14    15 ar  
    33    14    37 1   
    34    15    16 ar  
    35    15    38 1   
    36    16    17 ar  
    37    16    28 1   
    38    17    18 ar  
    39    17    29 1   
    40    18    39 1   
    41    19    40 1   
    42    19    41 1   
    43    19    42 1   
    44    20    43 1   
    45    21    27 1   
    46    21    44 1   
    47    22    45 1   
    48    23    46 1   
    49    23    48 1   
    50    24    47 1   
@<TRIPOS>SUBSTRUCTURE
     1 RZC         1 TEMP              0 ****  ****    0 ROOT
