@<TRIPOS>MOLECULE
RZC
   48    50     1     0     0
SMALL
abcg2


@<TRIPOS>ATOM
      1 C02         20.0450   -16.2590    -6.5880 ce         1 RZC       0.684800
      2 C04         20.6010   -17.6260    -6.6120 cc         1 RZC      -0.326900
      3 C05         21.2200   -18.2850    -5.5840 cd         1 RZC      -0.089000
      4 C06         21.6190   -19.6150    -5.9130 cd         1 RZC      -0.059000
      5 C07         22.3030   -20.5300    -4.9830 ca         1 RZC       0.013000
      6 C08         22.1920   -21.9160    -5.1250 ca         1 RZC      -0.123000
      7 C09         22.8510   -22.7620    -4.2410 ca         1 RZC      -0.082000
      8 C10         23.6150   -22.2450    -3.2060 ca         1 RZC      -0.157000
      9 C11         23.7300   -20.8600    -3.0520 ca         1 RZC      -0.025000
     10 C13         24.6700   -19.1430    -1.5050 c          1 RZC       0.578100
     11 C14         25.6540   -19.0410    -0.3170 c3         1 RZC       0.111000
     12 C15         25.3580   -17.8370     0.5650 c3         1 RZC      -0.096600
     13 C17         24.6240   -20.6490     1.2420 ca         1 RZC       0.137100
     14 C18         24.9370   -21.5500     2.2610 ca         1 RZC      -0.131000
     15 C19         23.9450   -22.0270     3.0970 ca         1 RZC      -0.067000
     16 C20         22.6260   -21.6130     2.9370 ca         1 RZC       0.093000
     17 C22         22.3170   -20.7190     1.9170 ca         1 RZC       0.156000
     18 C24         23.3060   -20.2380     1.0660 ca         1 RZC      -0.169000
     19 C25         27.0670   -18.9500    -0.8940 c3         1 RZC      -0.096600
     20 C27         23.0780   -20.0070    -3.9420 ca         1 RZC      -0.124000
     21 C28         21.2870   -19.9280    -7.2110 cc         1 RZC      -0.232000
     22 N01         19.6260   -15.6680    -5.5250 n2         1 RZC      -0.832100
     23 N03         19.9480   -15.6410    -7.8080 nv         1 RZC      -1.038200
     24 N12         24.5280   -20.3990    -1.9910 ns         1 RZC      -0.138000
     25 O16         25.6690   -20.2740     0.4480 os         1 RZC      -0.374100
     26 O26         24.1290   -18.1450    -1.9630 o          1 RZC      -0.578100
     27 S29         20.5050   -18.6380    -8.0180 ss         1 RZC       0.241000
     28 CL1         21.4070   -22.2200     4.0200 cl         1 RZC      -0.175000
     29 CL2         20.6850   -20.1710     1.6650 cl         1 RZC      -0.170000
     30 H051        21.3840   -17.8330    -4.6160 ha         1 RZC       0.147000
     31 H081        21.5800   -22.3330    -5.9130 ha         1 RZC       0.117000
     32 H091        22.7590   -23.8340    -4.3520 ha         1 RZC       0.116000
     33 H101        24.1230   -22.9050    -2.5130 ha         1 RZC       0.114000
     34 H153        26.0580   -17.8340     1.4000 hc         1 RZC       0.059533
     35 H151        25.4970   -16.9240    -0.0110 hc         1 RZC       0.059533
     36 H152        24.3430   -17.8380     0.9550 hc         1 RZC       0.059533
     37 H181        25.9630   -21.8660     2.3880 ha         1 RZC       0.136000
     38 H191        24.1890   -22.7230     3.8890 ha         1 RZC       0.136000
     39 H241        23.0170   -19.5530     0.2860 ha         1 RZC       0.146000
     40 H251        27.7840   -18.8410    -0.0800 hc         1 RZC       0.059533
     41 H252        27.3090   -19.8470    -1.4640 hc         1 RZC       0.059533
     42 H253        27.1420   -18.0820    -1.5500 hc         1 RZC       0.059533
     43 H271        23.1890   -18.9430    -3.8270 ha         1 RZC       0.148000
     44 H281        21.4770   -20.8490    -7.7380 h4         1 RZC       0.153000
     45 H011        19.6640   -16.2970    -4.7280 hn         1 RZC       0.391400
     46 H032        19.6680   -14.6710    -7.7860 hn         1 RZC       0.471000
     47 H121        25.0220   -21.1170    -1.4790 hn         1 RZC       0.167000
     48 H031        20.6310   -15.8680    -8.5140 hn         1 RZC       0.471000
@<TRIPOS>BOND
     1     1     2 1   
     2     1    22 2   
     3     1    23 1   
     4     2     3 2   
     5     2    27 1   
     6     3     4 1   
     7     3    30 1   
     8     4     5 1   
     9     4    21 2   
    10     5     6 ar  
    11     5    20 ar  
    12     6     7 ar  
    13     6    31 1   
    14     7     8 ar  
    15     7    32 1   
    16     8     9 ar  
    17     8    33 1   
    18     9    20 ar  
    19     9    24 1   
    20    10    11 1   
    21    10    24 1   
    22    10    26 2   
    23    11    12 1   
    24    11    19 1   
    25    11    25 1   
    26    12    34 1   
    27    12    35 1   
    28    12    36 1   
    29    13    14 ar  
    30    13    18 ar  
    31    13    25 1   
    32    14    15 ar  
    33    14    37 1   
    34    15    16 ar  
    35    15    38 1   
    36    16    17 ar  
    37    16    28 1   
    38    17    18 ar  
    39    17    29 1   
    40    18    39 1   
    41    19    40 1   
    42    19    41 1   
    43    19    42 1   
    44    20    43 1   
    45    21    27 1   
    46    21    44 1   
    47    22    45 1   
    48    23    46 1   
    49    23    48 1   
    50    24    47 1   
@<TRIPOS>SUBSTRUCTURE
     1 RZC         1 TEMP              0 ****  ****    0 ROOT
