@<TRIPOS>MOLECULE
RZE
   40    42     1     0     0
SMALL
No Charge or Current Charge


@<TRIPOS>ATOM
      1 C1         -27.5940     0.1410    -0.3280 ca         1 RZE       0.108100
      2 C2         -28.1440    -0.1280     0.9330 ca         1 RZE      -0.120000
      3 C3         -29.3860     0.4200     1.2980 ca         1 RZE      -0.067000
      4 C12        -34.3220     3.6660     0.3800 c3         1 RZE       0.024600
      5 C13        -35.3790     2.9190    -0.4770 c3         1 RZE       0.174500
      6 C15        -36.4380     3.8890    -1.0530 c3         1 RZE      -0.204400
      7 C16        -37.1570     3.2550    -2.2550 c          1 RZE       0.736000
      8 C20        -25.3960     0.2420    -1.3480 ca         1 RZE       0.562300
      9 C21        -24.5590    -0.4930    -2.2260 ca         1 RZE       0.112000
     10 C22        -23.5280     0.1680    -2.9140 ca         1 RZE      -0.094000
     11 C23        -23.3640     1.5450    -2.6930 ca         1 RZE       0.041000
     12 C24        -24.2310     2.2030    -1.7940 ca         1 RZE       0.379900
     13 C4         -30.1060     1.2410     0.3970 ca         1 RZE      -0.104500
     14 C5         -29.5470     1.4910    -0.8800 ca         1 RZE      -0.067000
     15 C6         -28.3040     0.9410    -1.2410 ca         1 RZE      -0.120000
     16 C7         -31.4110     1.8210     0.7690 cc         1 RZE       0.528500
     17 N8         -32.1190     2.5860    -0.0300 nd         1 RZE      -0.508800
     18 N9         -33.1830     2.8270     0.7830 na         1 RZE       0.269600
     19 N10        -33.0950     2.2290     2.0120 nd         1 RZE      -0.195800
     20 N11        -31.9630     1.5860     1.9960 nc         1 RZE      -0.400000
     21 N14        -36.0390     1.8470     0.3040 n8         1 RZE      -0.970200
     22 O17        -38.2390     2.7140    -2.0760 o          1 RZE      -0.729500
     23 O18        -36.6130     3.3300    -3.3480 o          1 RZE      -0.729500
     24 O19        -26.3880    -0.4300    -0.6640 os         1 RZE      -0.351400
     25 N25        -25.2290     1.5720    -1.1250 nb         1 RZE      -0.707000
     26 Cl1        -22.0870     2.4280    -3.5260 cl         1 RZE      -0.180000
     27 F27        -24.7420    -1.8230    -2.4150 f          1 RZE      -0.151000
     28 H1         -27.6030    -0.7610     1.6340 ha         1 RZE       0.125000
     29 H2         -29.7840     0.1980     2.2860 ha         1 RZE       0.139500
     30 H3         -33.9200     4.5080    -0.1960 h1         1 RZE       0.072700
     31 H4         -34.7950     4.0790     1.2800 h1         1 RZE       0.072700
     32 H5         -34.8390     2.4590    -1.3200 h1         1 RZE       0.098700
     33 H6         -35.8670     4.7580    -1.4060 hc         1 RZE       0.018700
     34 H7         -37.1430     4.1340    -0.2480 hc         1 RZE       0.018700
     35 H8         -22.8760    -0.3730    -3.5960 ha         1 RZE       0.149000
     36 H9         -24.1200     3.2700    -1.6030 h4         1 RZE       0.041100
     37 H10        -30.0750     2.1110    -1.6010 ha         1 RZE       0.139500
     38 H11        -27.8990     1.1380    -2.2300 ha         1 RZE       0.125000
     39 H12        -35.3300     1.3240     0.8320 hn         1 RZE       0.382500
     40 H13        -36.6240     2.2720     1.0320 hn         1 RZE       0.382500
@<TRIPOS>BOND
     1     1     2 ar  
     2     1    15 ar  
     3     1    24 1   
     4     2     3 ar  
     5     2    28 1   
     6     3    13 ar  
     7     3    29 1   
     8     4     5 1   
     9     4    18 1   
    10     4    30 1   
    11     4    31 1   
    12     5     6 1   
    13     5    21 1   
    14     5    32 1   
    15     6     7 1   
    16     6    33 1   
    17     6    34 1   
    18     7    22 1   
    19     7    23 1   
    20     8     9 ar  
    21     8    24 1   
    22     8    25 ar  
    23     9    10 ar  
    24     9    27 1   
    25    10    11 ar  
    26    10    35 1   
    27    11    12 ar  
    28    11    26 1   
    29    12    25 ar  
    30    12    36 1   
    31    13    14 ar  
    32    13    16 1   
    33    14    15 ar  
    34    14    37 1   
    35    15    38 1   
    36    16    17 2   
    37    16    20 1   
    38    17    18 1   
    39    18    19 1   
    40    19    20 2   
    41    21    39 1   
    42    21    40 1   
@<TRIPOS>SUBSTRUCTURE
     1 RZE         1 TEMP              0 ****  ****    0 ROOT
