@<TRIPOS>MOLECULE
RZE
   40    42     1     0     0
SMALL
bcc


@<TRIPOS>ATOM
      1 C1         -27.7170     0.1060    -0.4770 ca         1 RZE       0.108100
      2 C2         -28.0990    -0.0080     0.8480 ca         1 RZE      -0.138000
      3 C3         -29.3060     0.5350     1.2590 ca         1 RZE      -0.085000
      4 C12        -34.2490     3.6890     0.4400 c3         1 RZE      -0.004700
      5 C13        -35.1720     2.9440    -0.5350 c3         1 RZE       0.174500
      6 C15        -36.2920     3.8830    -0.9560 c3         1 RZE      -0.204400
      7 C16        -37.1520     3.3410    -2.1190 c          1 RZE       0.946600
      8 C20        -25.5680     0.2280    -1.4190 ca         1 RZE       0.627600
      9 C21        -24.5430    -0.4700    -2.0630 ca         1 RZE       0.011600
     10 C22        -23.5060     0.2210    -2.6350 ca         1 RZE      -0.112000
     11 C23        -23.5310     1.6090    -2.5440 ca         1 RZE      -0.115900
     12 C24        -24.5760     2.2270    -1.8870 ca         1 RZE       0.445200
     13 C4         -30.1250     1.2030     0.3530 ca         1 RZE      -0.104500
     14 C5         -29.7250     1.3020    -0.9790 ca         1 RZE      -0.085000
     15 C6         -28.5270     0.7550    -1.3990 ca         1 RZE      -0.138000
     16 C7         -31.3820     1.7980     0.7920 cc         1 RZE       0.528500
     17 N8         -32.1380     2.5750     0.0390 nd         1 RZE      -0.508800
     18 N9         -33.1190     2.8770     0.8470 na         1 RZE       0.298900
     19 N10        -33.0120     2.3320     2.0230 nd         1 RZE      -0.195800
     20 N11        -31.9160     1.6440     2.0150 nc         1 RZE      -0.400000
     21 N14        -35.7230     1.7140     0.0010 n8         1 RZE      -0.859800
     22 O17        -38.3830     3.5110    -2.0320 o          1 RZE      -0.834800
     23 O18        -36.5360     2.8120    -3.0660 o          1 RZE      -0.834800
     24 O19        -26.5480    -0.5030    -0.8630 os         1 RZE      -0.351400
     25 N25        -25.5660     1.5320    -1.3370 nb         1 RZE      -0.707000
     26 CL1        -22.2690     2.5480    -3.2470 cl         1 RZE      -0.088400
     27 F27        -24.5870    -1.8000    -2.1150 f          1 RZE      -0.115900
     28 H1         -27.4590    -0.5180     1.5560 ha         1 RZE       0.143000
     29 H2         -29.6000     0.4470     2.2960 ha         1 RZE       0.157500
     30 H3         -33.8510     4.5980    -0.0110 h1         1 RZE       0.072700
     31 H4         -34.7810     3.9630     1.3510 h1         1 RZE       0.072700
     32 H5         -34.5880     2.6880    -1.4220 h1         1 RZE       0.098700
     33 H6         -35.8540     4.8350    -1.2780 hc         1 RZE       0.018700
     34 H7         -36.9210     4.1140    -0.0910 hc         1 RZE       0.018700
     35 H8         -22.7070    -0.3050    -3.1420 ha         1 RZE       0.167000
     36 H9         -24.6210     3.3050    -1.7970 h4         1 RZE       0.041100
     37 H10        -30.3540     1.8070    -1.7000 ha         1 RZE       0.157500
     38 H11        -28.2330     0.8290    -2.4380 ha         1 RZE       0.143000
     39 H12        -34.9970     1.0390     0.2010 hn         1 RZE       0.327300
     40 H13        -36.2020     1.8950     0.8750 hn         1 RZE       0.327300
@<TRIPOS>BOND
     1     1     2 ar  
     2     1    15 ar  
     3     1    24 1   
     4     2     3 ar  
     5     2    28 1   
     6     3    13 ar  
     7     3    29 1   
     8     4     5 1   
     9     4    18 1   
    10     4    30 1   
    11     4    31 1   
    12     5     6 1   
    13     5    21 1   
    14     5    32 1   
    15     6     7 1   
    16     6    33 1   
    17     6    34 1   
    18     7    22 1   
    19     7    23 1   
    20     8     9 ar  
    21     8    24 1   
    22     8    25 ar  
    23     9    10 ar  
    24     9    27 1   
    25    10    11 ar  
    26    10    35 1   
    27    11    12 ar  
    28    11    26 1   
    29    12    25 ar  
    30    12    36 1   
    31    13    14 ar  
    32    13    16 1   
    33    14    15 ar  
    34    14    37 1   
    35    15    38 1   
    36    16    17 2   
    37    16    20 1   
    38    17    18 1   
    39    18    19 1   
    40    19    20 2   
    41    21    39 1   
    42    21    40 1   
@<TRIPOS>SUBSTRUCTURE
     1 RZE         1 TEMP              0 ****  ****    0 ROOT
