@<TRIPOS>MOLECULE
RZF
   53    57     1     0     0
SMALL
abcg2


@<TRIPOS>ATOM
      1 N1         -21.7610     6.6070    30.4300 n          1 RZF      -0.416800
      2 N3         -16.7550     3.7280    25.9540 nb         1 RZF      -0.653000
      3 C4         -21.7180     4.5360    29.0450 c5         1 RZF      -0.103700
      4 C5         -22.2800     3.9370    27.7440 c5         1 RZF      -0.085400
      5 C6         -21.2890     4.3680    26.6550 c5         1 RZF       0.105000
      6 C7         -20.2090     4.6500    28.7390 c          1 RZF       0.571000
      7 C8         -18.7760     4.7330    26.7810 ca         1 RZF      -0.089000
      8 C10        -16.3080     4.9210    25.6330 ca         1 RZF       0.373900
      9 C13        -17.2400     8.5220    25.7150 ca         1 RZF      -0.104000
     10 C15        -19.0650     7.2100    26.6530 ca         1 RZF      -0.101000
     11 C17        -21.9350     3.7590    30.3240 ca         1 RZF      -0.028300
     12 C20        -22.2340     2.4050    32.7670 ca         1 RZF      -0.104000
     13 C21        -22.0260     3.7730    32.7450 ca         1 RZF      -0.043000
     14 C22        -21.8770     4.4570    31.5390 ca         1 RZF      -0.127600
     15 C23        -21.6170     5.9250    31.5940 c          1 RZF       0.576600
     16 C2         -21.6460     8.0530    30.4440 c3         1 RZF       0.018000
     17 C1         -20.2410     8.6350    30.2890 c          1 RZF       0.581100
     18 O          -20.0930     9.8560    30.3880 o          1 RZF      -0.621100
     19 N          -19.2450     7.7850    30.0330 ns         1 RZF      -0.494900
     20 C          -17.8750     8.2240    29.8380 c3         1 RZF       0.093300
     21 C19        -22.2710     1.7240    31.5570 ca         1 RZF       0.142000
     22 CL1        -22.5160    -0.0050    31.5570 cl         1 RZF      -0.198000
     23 C18        -22.1190     2.3810    30.3440 ca         1 RZF      -0.106000
     24 C3         -22.2890     5.9510    29.2370 c6         1 RZF       0.121000
     25 O1         -19.3200     4.8460    29.5600 o          1 RZF      -0.529000
     26 N2         -20.0400     4.5490    27.4050 n          1 RZF      -0.245400
     27 C16        -18.3210     6.0310    26.4350 ca         1 RZF       0.000000
     28 C14        -18.5210     8.4130    26.2940 ca         1 RZF       0.144000
     29 CL         -19.4300     9.8760    26.5700 cl         1 RZF      -0.182000
     30 C12        -16.5100     7.3850    25.4930 ca         1 RZF      -0.068000
     31 C11        -17.0300     6.1180    25.8440 ca         1 RZF      -0.101000
     32 C9         -17.9820     3.6450    26.5270 ca         1 RZF       0.348900
     33 H1         -23.2910     4.2850    27.5410 hc         1 RZF       0.069200
     34 H2         -22.2990     2.8520    27.7920 hc         1 RZF       0.069200
     35 H3         -21.5760     5.3070    26.1760 h1         1 RZF       0.057700
     36 H4         -21.1550     3.6100    25.8860 h1         1 RZF       0.057700
     37 H5         -15.3220     4.9780    25.1810 h4         1 RZF       0.026100
     38 H6         -16.8510     9.4960    25.4530 ha         1 RZF       0.138000
     39 H7         -20.0460     7.1680    27.0990 ha         1 RZF       0.131000
     40 H8         -22.3600     1.8750    33.7000 ha         1 RZF       0.139000
     41 H9         -21.9770     4.3300    33.6700 ha         1 RZF       0.148000
     42 H10        -22.0440     8.4440    31.3790 h1         1 RZF       0.082200
     43 H11        -22.2480     8.4590    29.6310 h1         1 RZF       0.082200
     44 H12        -19.4300     6.7910    29.9960 hn         1 RZF       0.342500
     45 H13        -17.3160     7.4100    29.3810 h1         1 RZF       0.041033
     46 H14        -17.8470     9.0890    29.1780 h1         1 RZF       0.041033
     47 H15        -17.4030     8.4950    30.7850 h1         1 RZF       0.041033
     48 H16        -22.1410     1.8060    29.4310 ha         1 RZF       0.130000
     49 H17        -22.0480     6.5740    28.3780 h1         1 RZF       0.054700
     50 H18        -23.3790     5.8730    29.2960 h1         1 RZF       0.054700
     51 H19        -15.5250     7.4460    25.0480 ha         1 RZF       0.126000
     52 H20        -18.3310     2.6550    26.7960 h4         1 RZF       0.031100
     53 O2         -21.2820     6.4840    32.6390 o          1 RZF      -0.538000
@<TRIPOS>BOND
     1     1    15 1   
     2     1    16 1   
     3     1    24 1   
     4     2     8 ar  
     5     2    32 ar  
     6     3     4 1   
     7     3     6 1   
     8     3    11 1   
     9     3    24 1   
    10     4     5 1   
    11     4    33 1   
    12     4    34 1   
    13     5    26 1   
    14     5    35 1   
    15     5    36 1   
    16     6    25 2   
    17     6    26 1   
    18     7    26 1   
    19     7    27 ar  
    20     7    32 ar  
    21     8    31 ar  
    22     8    37 1   
    23     9    28 ar  
    24     9    30 ar  
    25     9    38 1   
    26    10    27 ar  
    27    10    28 ar  
    28    10    39 1   
    29    11    14 ar  
    30    11    23 ar  
    31    12    13 ar  
    32    12    21 ar  
    33    12    40 1   
    34    13    14 ar  
    35    13    41 1   
    36    14    15 1   
    37    15    53 2   
    38    16    17 1   
    39    16    42 1   
    40    16    43 1   
    41    17    18 2   
    42    17    19 1   
    43    19    20 1   
    44    19    44 1   
    45    20    45 1   
    46    20    46 1   
    47    20    47 1   
    48    21    22 1   
    49    21    23 ar  
    50    23    48 1   
    51    24    49 1   
    52    24    50 1   
    53    27    31 ar  
    54    28    29 1   
    55    30    31 ar  
    56    30    51 1   
    57    32    52 1   
@<TRIPOS>SUBSTRUCTURE
     1 RZF         1 TEMP              0 ****  ****    0 ROOT
