@<TRIPOS>MOLECULE
RZF
   53    57     1     0     0
SMALL
No Charge or Current Charge


@<TRIPOS>ATOM
      1 N1         -22.0000     6.6990    30.1600 n          1 RZF      -0.416800
      2 N3         -17.4300     3.6470    24.9840 nb         1 RZF      -0.653000
      3 C4         -21.6880     4.5720    28.9550 c5         1 RZF      -0.103700
      4 C5         -22.2550     3.6410    27.8200 c5         1 RZF      -0.085400
      5 C6         -21.5790     4.2240    26.5450 c5         1 RZF       0.105000
      6 C7         -20.2600     4.8510    28.4730 c          1 RZF       0.571000
      7 C8         -19.1360     4.8700    26.2350 ca         1 RZF      -0.089000
      8 C10        -16.6750     4.7680    24.9660 ca         1 RZF       0.373900
      9 C13        -16.6470     8.2990    26.1570 ca         1 RZF      -0.104000
     10 C15        -18.7230     7.2330    26.8540 ca         1 RZF      -0.101000
     11 C17        -21.7240     3.8600    30.3380 ca         1 RZF      -0.028300
     12 C20        -21.8060     2.6230    32.9000 ca         1 RZF      -0.104000
     13 C21        -21.9940     4.0060    32.7810 ca         1 RZF      -0.043000
     14 C22        -21.9420     4.6330    31.5160 ca         1 RZF      -0.127600
     15 C23        -22.0350     6.1400    31.4470 c          1 RZF       0.576600
     16 C2         -21.8630     8.1770    29.9910 c3         1 RZF       0.018000
     17 C1         -20.4850     8.7600    30.3830 c          1 RZF       0.581100
     18 O          -20.3320     9.9380    30.6770 o          1 RZF      -0.621100
     19 N          -19.4380     7.8620    30.4100 ns         1 RZF      -0.494900
     20 C          -18.0650     8.1950    30.7910 c3         1 RZF       0.093300
     21 C19        -21.5320     1.8630    31.7600 ca         1 RZF       0.142000
     22 Cl1        -21.2390     0.1350    31.9120 cl         1 RZF      -0.198000
     23 C18        -21.4780     2.4720    30.4980 ca         1 RZF      -0.106000
     24 C3         -22.4870     5.8940    29.0310 c6         1 RZF       0.121000
     25 O1         -19.2640     5.0880    29.1440 o          1 RZF      -0.529000
     26 N2         -20.3030     4.7560    27.0720 n          1 RZF      -0.245400
     27 C16        -18.3120     6.0210    26.2550 ca         1 RZF       0.000000
     28 C14        -17.8930     8.3640    26.7990 ca         1 RZF       0.144000
     29 Cl         -18.4330     9.8810    27.5040 cl         1 RZF      -0.182000
     30 C12        -16.2320     7.1020    25.5500 ca         1 RZF      -0.068000
     31 C11        -17.0670     5.9680    25.5910 ca         1 RZF      -0.101000
     32 C9         -18.6190     3.7030    25.6260 ca         1 RZF       0.348900
     33 H1         -23.3490     3.6500    27.7570 hc         1 RZF       0.069200
     34 H2         -21.9590     2.5930    27.8970 hc         1 RZF       0.069200
     35 H3         -22.1760     5.0370    26.1120 h1         1 RZF       0.057700
     36 H4         -21.4330     3.4590    25.7720 h1         1 RZF       0.057700
     37 H5         -15.7220     4.6980    24.4430 h4         1 RZF       0.026100
     38 H6         -16.0110     9.1800    26.1170 ha         1 RZF       0.138000
     39 H7         -19.6920     7.3180    27.3350 ha         1 RZF       0.131000
     40 H8         -21.8430     2.1470    33.8770 ha         1 RZF       0.139000
     41 H9         -22.1660     4.5940    33.6810 ha         1 RZF       0.148000
     42 H10        -22.6250     8.6830    30.5980 h1         1 RZF       0.082200
     43 H11        -22.0340     8.4490    28.9420 h1         1 RZF       0.082200
     44 H12        -19.6480     6.9030    30.1500 hn         1 RZF       0.342500
     45 H13        -17.4010     7.3630    30.5240 h1         1 RZF       0.041033
     46 H14        -17.7370     9.1000    30.2650 h1         1 RZF       0.041033
     47 H15        -18.0150     8.3660    31.8740 h1         1 RZF       0.041033
     48 H16        -21.2210     1.8360    29.6590 ha         1 RZF       0.130000
     49 H17        -22.3960     6.4560    28.0910 h1         1 RZF       0.054700
     50 H18        -23.5540     5.6780    29.1860 h1         1 RZF       0.054700
     51 H19        -15.2700     7.0600    25.0430 ha         1 RZF       0.126000
     52 H20        -19.1760     2.7680    25.6670 h4         1 RZF       0.031100
     53 O2         -22.0470     6.8430    32.4490 o          1 RZF      -0.538000
@<TRIPOS>BOND
     1     1    15 1   
     2     1    16 1   
     3     1    24 1   
     4     2     8 ar  
     5     2    32 ar  
     6     3     4 1   
     7     3     6 1   
     8     3    11 1   
     9     3    24 1   
    10     4     5 1   
    11     4    33 1   
    12     4    34 1   
    13     5    26 1   
    14     5    35 1   
    15     5    36 1   
    16     6    25 2   
    17     6    26 1   
    18     7    26 1   
    19     7    27 ar  
    20     7    32 ar  
    21     8    31 ar  
    22     8    37 1   
    23     9    28 ar  
    24     9    30 ar  
    25     9    38 1   
    26    10    27 ar  
    27    10    28 ar  
    28    10    39 1   
    29    11    14 ar  
    30    11    23 ar  
    31    12    13 ar  
    32    12    21 ar  
    33    12    40 1   
    34    13    14 ar  
    35    13    41 1   
    36    14    15 1   
    37    15    53 2   
    38    16    17 1   
    39    16    42 1   
    40    16    43 1   
    41    17    18 2   
    42    17    19 1   
    43    19    20 1   
    44    19    44 1   
    45    20    45 1   
    46    20    46 1   
    47    20    47 1   
    48    21    22 1   
    49    21    23 ar  
    50    23    48 1   
    51    24    49 1   
    52    24    50 1   
    53    27    31 ar  
    54    28    29 1   
    55    30    31 ar  
    56    30    51 1   
    57    32    52 1   
@<TRIPOS>SUBSTRUCTURE
     1 RZF         1 TEMP              0 ****  ****    0 ROOT
