@<TRIPOS>MOLECULE
RZG
   23    23     1     0     0
SMALL
No Charge or Current Charge


@<TRIPOS>ATOM
      1 C10          0.8960    -1.4090    -0.0140 ca         1 RZG      -0.079500
      2 C01          5.2990     0.8370    -0.0180 c3         1 RZG       0.153900
      3 C03          3.2050    -0.3660    -0.0170 c          1 RZG       0.599700
      4 C05          1.6960    -0.2440    -0.0110 ca         1 RZG      -0.089600
      5 C06          1.0570     1.0180    -0.0020 ca         1 RZG      -0.079500
      6 C07         -0.3460     1.1110     0.0040 ca         1 RZG      -0.027000
      7 C08         -1.1350    -0.0570     0.0030 ca         1 RZG      -0.243500
      8 C09         -0.5070    -1.3190    -0.0080 ca         1 RZG      -0.027000
      9 N14         -3.3070     0.0940    -1.5770 n8         1 RZG      -1.008100
     10 O02          3.8590     0.8420    -0.0130 os         1 RZG      -0.436100
     11 O04          3.7860    -1.4450    -0.0260 o          1 RZG      -0.480000
     12 O12         -3.5350    -1.1830     0.4790 o          1 RZG      -0.540500
     13 O13         -3.3670     1.3700     0.4910 o          1 RZG      -0.540500
     14 S11         -2.9300     0.0610     0.0100 sy         1 RZG       1.126600
     15 H1           1.3610    -2.3930    -0.0220 ha         1 RZG       0.139500
     16 H2           5.6850     1.8640    -0.0140 h1         1 RZG       0.051700
     17 H3           5.6930     0.3220     0.8680 h1         1 RZG       0.051700
     18 H4           5.6860     0.3330    -0.9140 h1         1 RZG       0.051700
     19 H5           1.6400     1.9360    -0.0010 ha         1 RZG       0.139500
     20 H6          -0.8150     2.0940     0.0080 ha         1 RZG       0.141500
     21 H7          -1.1000    -2.2320    -0.0140 ha         1 RZG       0.141500
     22 H8          -3.9970    -0.6530    -1.6160 hn         1 RZG       0.476500
     23 H9          -3.8930     0.9250    -1.6090 hn         1 RZG       0.476500
@<TRIPOS>BOND
     1     1     4 ar  
     2     1     8 ar  
     3     1    15 1   
     4     2    10 1   
     5     2    16 1   
     6     2    17 1   
     7     2    18 1   
     8     3     4 1   
     9     3    10 1   
    10     3    11 2   
    11     4     5 ar  
    12     5     6 ar  
    13     5    19 1   
    14     6     7 ar  
    15     6    20 1   
    16     7     8 ar  
    17     7    14 1   
    18     8    21 1   
    19     9    14 1   
    20     9    22 1   
    21     9    23 1   
    22    12    14 2   
    23    13    14 2   
@<TRIPOS>SUBSTRUCTURE
     1 RZG         1 TEMP              0 ****  ****    0 ROOT
