@<TRIPOS>MOLECULE
RZG
   23    23     1     0     0
SMALL
abcg2


@<TRIPOS>ATOM
      1 C10          0.8800    -1.3910     0.0750 ca         1 RZG      -0.079500
      2 C01          5.1760     0.7820    -0.0600 c3         1 RZG       0.153900
      3 C03          3.1280    -0.3720    -0.0170 c          1 RZG       0.599700
      4 C05          1.6440    -0.2320    -0.0060 ca         1 RZG      -0.089600
      5 C06          1.0160     1.0110    -0.0720 ca         1 RZG      -0.079500
      6 C07         -0.3650     1.0930    -0.0570 ca         1 RZG      -0.027000
      7 C08         -1.1110    -0.0760     0.0270 ca         1 RZG      -0.243500
      8 C09         -0.5030    -1.3190     0.0960 ca         1 RZG      -0.027000
      9 N14         -3.2120     0.4010    -1.5000 n8         1 RZG      -1.008100
     10 O02          3.7470     0.7920    -0.0460 os         1 RZG      -0.436100
     11 O04          3.6930    -1.4380     0.0000 o          1 RZG      -0.480000
     12 O12         -3.3980    -1.2510     0.4900 o          1 RZG      -0.540500
     13 O13         -3.2570     1.2220     0.8420 o          1 RZG      -0.540500
     14 S11         -2.8810     0.0450     0.0750 sy         1 RZG       1.126600
     15 H1           1.3610    -2.3580     0.1290 ha         1 RZG       0.139500
     16 H2           5.4790     1.8240    -0.0900 h1         1 RZG       0.051700
     17 H3           5.5760     0.3120     0.8370 h1         1 RZG       0.051700
     18 H4           5.5580     0.2670    -0.9410 h1         1 RZG       0.051700
     19 H5           1.5920     1.9230    -0.1360 ha         1 RZG       0.139500
     20 H6          -0.8470     2.0600    -0.1100 ha         1 RZG       0.141500
     21 H7          -1.0890    -2.2250     0.1670 ha         1 RZG       0.141500
     22 H8          -3.1340    -0.4020    -2.1150 hn         1 RZG       0.476500
     23 H9          -4.1230     0.8390    -1.6010 hn         1 RZG       0.476500
@<TRIPOS>BOND
     1     1     4 ar  
     2     1     8 ar  
     3     1    15 1   
     4     2    10 1   
     5     2    16 1   
     6     2    17 1   
     7     2    18 1   
     8     3     4 1   
     9     3    10 1   
    10     3    11 2   
    11     4     5 ar  
    12     5     6 ar  
    13     5    19 1   
    14     6     7 ar  
    15     6    20 1   
    16     7     8 ar  
    17     7    14 1   
    18     8    21 1   
    19     9    14 1   
    20     9    22 1   
    21     9    23 1   
    22    12    14 2   
    23    13    14 2   
@<TRIPOS>SUBSTRUCTURE
     1 RZG         1 TEMP              0 ****  ****    0 ROOT
