@<TRIPOS>MOLECULE
RZH
   33    34     1     0     0
SMALL
No Charge or Current Charge


@<TRIPOS>ATOM
      1 N1         122.2450   103.4880   -46.6820 na         1 RZH      -0.232700
      2 C1         123.5800   103.5290   -44.8630 ca         1 RZH      -0.091800
      3 C2         123.1830   102.7890   -45.9420 ca         1 RZH      -0.033200
      4 C3         122.8710   104.7780   -44.8930 cc         1 RZH      -0.129400
      5 C4         122.0590   104.7240   -46.0230 cd         1 RZH      -0.053300
      6 C5         123.7000   101.5030   -46.1960 ca         1 RZH      -0.090300
      7 C6         124.5230   103.0530   -43.9430 ca         1 RZH      -0.035000
      8 C7         124.6590   101.0010   -45.2780 ca         1 RZH      -0.071000
      9 C8         125.0630   101.7720   -44.1630 ca         1 RZH      -0.031900
     10 Br         126.3550   101.0670   -42.9420 br         1 RZH      -0.128100
     11 C9         123.0090   105.9090   -43.9040 c3         1 RZH      -0.005200
     12 C10        121.1120   105.7770   -46.5370 c3         1 RZH      -0.038900
     13 N2         124.4640   107.7880   -43.0930 n8         1 RZH      -1.004200
     14 C11        123.2190   100.7160   -47.4220 c3         1 RZH      -0.025100
     15 C12        124.3340   106.6850   -44.0710 c3         1 RZH       0.149800
     16 C13        123.8420    99.3180   -47.6200 c3         1 RZH      -0.087100
     17 H1         121.7850   103.1770   -47.5310 hn         1 RZH       0.349000
     18 H6         124.8280   103.6490   -43.0860 ha         1 RZH       0.136000
     19 H91C       122.1680   106.6040   -44.0090 hc         1 RZH       0.051200
     20 H92C       122.9530   105.5080   -42.8850 hc         1 RZH       0.051200
     21 H101       120.2830   105.9320   -45.8370 hc         1 RZH       0.050033
     22 H102       121.6260   106.7360   -46.6690 hc         1 RZH       0.050033
     23 H103       120.6820   105.4940   -47.5060 hc         1 RZH       0.050033
     24 H7         125.1000   100.0170   -45.4110 ha         1 RZH       0.128000
     25 H111       122.1300   100.5960   -47.3680 hc         1 RZH       0.040200
     26 H112       123.4150   101.3050   -48.3270 hc         1 RZH       0.040200
     27 H121       125.1820   105.9990   -43.9390 h1         1 RZH       0.032200
     28 H122       124.3860   107.1050   -45.0850 h1         1 RZH       0.032200
     29 H21N       125.3330   108.3030   -43.2850 hn         1 RZH       0.392000
     30 H22N       123.7300   108.4830   -43.2740 hn         1 RZH       0.392000
     31 H131       123.4320    98.8450   -48.5200 hc         1 RZH       0.038033
     32 H132       124.9300    99.3890   -47.7410 hc         1 RZH       0.038033
     33 H133       123.6210    98.6670   -46.7660 hc         1 RZH       0.038033
@<TRIPOS>BOND
     1     1     3 1   
     2     1     5 1   
     3     1    17 1   
     4     2     3 ar  
     5     2     4 1   
     6     2     7 ar  
     7     3     6 ar  
     8     4     5 2   
     9     4    11 1   
    10     5    12 1   
    11     6     8 ar  
    12     6    14 1   
    13     7     9 ar  
    14     7    18 1   
    15     8     9 ar  
    16     8    24 1   
    17     9    10 1   
    18    11    15 1   
    19    11    19 1   
    20    11    20 1   
    21    12    21 1   
    22    12    22 1   
    23    12    23 1   
    24    13    15 1   
    25    13    29 1   
    26    13    30 1   
    27    14    16 1   
    28    14    25 1   
    29    14    26 1   
    30    15    27 1   
    31    15    28 1   
    32    16    31 1   
    33    16    32 1   
    34    16    33 1   
@<TRIPOS>SUBSTRUCTURE
     1 RZH         1 TEMP              0 ****  ****    0 ROOT
