@<TRIPOS>MOLECULE
RZH
   33    34     1     0     0
SMALL
abcg2


@<TRIPOS>ATOM
      1 N1         122.2800   103.5150   -46.5980 na         1 RZH      -0.232700
      2 C1         123.6250   103.5310   -44.8030 ca         1 RZH      -0.091800
      3 C2         123.1990   102.7570   -45.9120 ca         1 RZH      -0.033200
      4 C3         122.9180   104.7820   -44.8520 cc         1 RZH      -0.129400
      5 C4         122.1090   104.7340   -45.9650 cd         1 RZH      -0.053300
      6 C5         123.6760   101.4690   -46.1770 ca         1 RZH      -0.090300
      7 C6         124.5730   102.9990   -43.9170 ca         1 RZH      -0.035000
      8 C7         124.6150   100.9650   -45.2820 ca         1 RZH      -0.071000
      9 C8         125.0380   101.7290   -44.1850 ca         1 RZH      -0.031900
     10 BR         126.3450   100.9500   -42.9990 br         1 RZH      -0.128100
     11 C9         123.0870   105.9160   -43.8920 c3         1 RZH      -0.005200
     12 C10        121.1700   105.7460   -46.5210 c3         1 RZH      -0.038900
     13 N2         124.4580   107.8530   -43.2120 n8         1 RZH      -1.004200
     14 C11        123.1710   100.7030   -47.3760 c3         1 RZH      -0.025100
     15 C12        124.3010   106.7920   -44.2140 c3         1 RZH       0.149800
     16 C13        123.7750    99.3190   -47.5860 c3         1 RZH      -0.087100
     17 H1         121.7920   103.2350   -47.4320 hn         1 RZH       0.349000
     18 H6         124.9240   103.5600   -43.0620 ha         1 RZH       0.136000
     19 H91C       122.1930   106.5460   -43.8870 hc         1 RZH       0.051200
     20 H92C       123.2010   105.5280   -42.8750 hc         1 RZH       0.051200
     21 H101       120.1740   105.3200   -46.6650 hc         1 RZH       0.050033
     22 H102       121.0860   106.5990   -45.8500 hc         1 RZH       0.050033
     23 H103       121.5150   106.1110   -47.4920 hc         1 RZH       0.050033
     24 H7         125.0260    99.9780   -45.4280 ha         1 RZH       0.128000
     25 H111       122.0820   100.6130   -47.2920 hc         1 RZH       0.040200
     26 H112       123.3420   101.3140   -48.2700 hc         1 RZH       0.040200
     27 H121       125.2030   106.1760   -44.2040 h1         1 RZH       0.032200
     28 H122       124.1890   107.1790   -45.2370 h1         1 RZH       0.032200
     29 H21N       125.2840   108.4050   -43.4210 hn         1 RZH       0.392000
     30 H22N       123.6720   108.4940   -43.2710 hn         1 RZH       0.392000
     31 H131       123.3430    98.8540   -48.4730 hc         1 RZH       0.038033
     32 H132       124.8570    99.3710   -47.7280 hc         1 RZH       0.038033
     33 H133       123.5790    98.6640   -46.7350 hc         1 RZH       0.038033
@<TRIPOS>BOND
     1     1     3 1   
     2     1     5 1   
     3     1    17 1   
     4     2     3 ar  
     5     2     4 1   
     6     2     7 ar  
     7     3     6 ar  
     8     4     5 2   
     9     4    11 1   
    10     5    12 1   
    11     6     8 ar  
    12     6    14 1   
    13     7     9 ar  
    14     7    18 1   
    15     8     9 ar  
    16     8    24 1   
    17     9    10 1   
    18    11    15 1   
    19    11    19 1   
    20    11    20 1   
    21    12    21 1   
    22    12    22 1   
    23    12    23 1   
    24    13    15 1   
    25    13    29 1   
    26    13    30 1   
    27    14    16 1   
    28    14    25 1   
    29    14    26 1   
    30    15    27 1   
    31    15    28 1   
    32    16    31 1   
    33    16    32 1   
    34    16    33 1   
@<TRIPOS>SUBSTRUCTURE
     1 RZH         1 TEMP              0 ****  ****    0 ROOT
