@<TRIPOS>MOLECULE
RZI
   33    36     1     0     0
SMALL
No Charge or Current Charge


@<TRIPOS>ATOM
      1 C18        -45.2020   -24.3270    -1.2900 cx         1 RZI      -0.114900
      2 C16        -45.4460   -25.8190    -1.3980 cx         1 RZI      -0.181000
      3 C17        -44.4330   -25.1460    -2.3030 cx         1 RZI      -0.114900
      4 C14        -45.0180   -26.7450    -0.3230 cc         1 RZI       0.491700
      5 C12        -43.8760   -27.8990     1.4830 cc         1 RZI      -0.220000
      6 C11        -45.0510   -28.4830     1.0740 cd         1 RZI       0.253300
      7 C10        -45.6520   -29.7330     1.6670 c3         1 RZI       0.071300
      8 C19        -45.9970   -29.4610     4.1230 ca         1 RZI       0.166500
      9 C02        -44.6800   -29.5490     5.9700 ca         1 RZI       0.411900
     10 C04        -46.8650   -29.0450     6.3010 ca         1 RZI       0.480900
     11 C06        -47.0760   -29.1440     4.9110 ca         1 RZI      -0.136600
     12 C08        -47.8510   -29.1710     2.8950 cc         1 RZI       0.412700
     13 N01        -43.4580   -29.7540     6.5080 nv         1 RZI      -1.044900
     14 N03        -45.6560   -29.2450     6.8410 nb         1 RZI      -0.351000
     15 N05        -47.8610   -28.7320     7.1690 nv         1 RZI      -1.073900
     16 N07        -48.2500   -28.9570     4.1650 nd         1 RZI      -0.550100
     17 N09        -46.4920   -29.4850     2.8520 na         1 RZI      -0.293300
     18 N15        -45.7030   -27.8210     0.0430 nd         1 RZI      -0.643000
     19 N20        -44.7690   -29.6720     4.6330 nb         1 RZI      -0.289000
     20 S13        -43.5330   -26.4650     0.5640 ss         1 RZI      -0.063400
     21 H182       -44.6580   -23.9460    -0.4280 hc         1 RZI       0.078700
     22 H181       -45.9760   -23.6590    -1.6630 hc         1 RZI       0.078700
     23 H161       -46.3820   -26.1290    -1.8580 hc         1 RZI       0.108700
     24 H171       -44.6940   -25.0250    -3.3520 hc         1 RZI       0.078700
     25 H172       -43.3740   -25.3130    -2.1210 hc         1 RZI       0.078700
     26 H121       -43.2000   -28.2190     2.2650 h4         1 RZI       0.168000
     27 H101       -46.2600   -30.2330     0.9020 h1         1 RZI       0.076200
     28 H102       -44.8410   -30.4220     1.9370 h1         1 RZI       0.076200
     29 H081       -48.4660   -29.1110     2.0050 h5         1 RZI       0.070800
     30 H011       -42.6540   -29.7690     5.8870 hn         1 RZI       0.481000
     31 H012       -43.2960   -29.4630     7.4680 hn         1 RZI       0.481000
     32 H051       -47.5940   -28.3790     8.0840 hn         1 RZI       0.506500
     33 H052       -48.7150   -28.3550     6.7670 hn         1 RZI       0.506500
@<TRIPOS>BOND
     1     1     2 1   
     2     1     3 1   
     3     1    21 1   
     4     1    22 1   
     5     2     3 1   
     6     2     4 1   
     7     2    23 1   
     8     3    24 1   
     9     3    25 1   
    10     4    18 2   
    11     4    20 1   
    12     5     6 2   
    13     5    20 1   
    14     5    26 1   
    15     6     7 1   
    16     6    18 1   
    17     7    17 1   
    18     7    27 1   
    19     7    28 1   
    20     8    11 ar  
    21     8    17 1   
    22     8    19 ar  
    23     9    13 1   
    24     9    14 ar  
    25     9    19 ar  
    26    10    11 ar  
    27    10    14 ar  
    28    10    15 1   
    29    11    16 1   
    30    12    16 2   
    31    12    17 1   
    32    12    29 1   
    33    13    30 1   
    34    13    31 1   
    35    15    32 1   
    36    15    33 1   
@<TRIPOS>SUBSTRUCTURE
     1 RZI         1 TEMP              0 ****  ****    0 ROOT
