@<TRIPOS>MOLECULE
RZI
   33    36     1     0     0
SMALL
abcg2


@<TRIPOS>ATOM
      1 C18        -44.9860   -24.3170    -0.8520 cx         1 RZI      -0.114900
      2 C16        -45.5770   -25.7090    -0.8760 cx         1 RZI      -0.181000
      3 C17        -44.8700   -25.1400    -2.0930 cx         1 RZI      -0.114900
      4 C14        -44.9860   -26.8090    -0.1060 cc         1 RZI       0.491700
      5 C12        -43.5570   -28.3970     1.0840 cc         1 RZI      -0.220000
      6 C11        -44.8740   -28.7240     1.0210 cd         1 RZI       0.253300
      7 C10        -45.5030   -29.9440     1.6250 c3         1 RZI       0.071300
      8 C19        -45.9710   -29.4080     4.0500 ca         1 RZI       0.166500
      9 C02        -44.7190   -29.2750     5.8780 ca         1 RZI       0.411900
     10 C04        -46.9700   -28.7630     6.1080 ca         1 RZI       0.480900
     11 C06        -47.1250   -29.0300     4.7340 ca         1 RZI      -0.136600
     12 C08        -47.7210   -29.3440     2.7090 cc         1 RZI       0.412700
     13 N01        -43.5220   -29.4410     6.5190 nv         1 RZI      -1.044900
     14 N03        -45.7530   -28.8920     6.6550 nb         1 RZI      -0.351000
     15 N05        -47.9950   -28.3840     6.8910 nv         1 RZI      -1.073900
     16 N07        -48.2120   -28.9970     3.8730 nd         1 RZI      -0.550100
     17 N09        -46.3690   -29.6130     2.7510 na         1 RZI      -0.293300
     18 N15        -45.6700   -27.8220     0.3490 nd         1 RZI      -0.643000
     19 N20        -44.7460   -29.5440     4.5640 nb         1 RZI      -0.289000
     20 S13        -43.2790   -26.9010     0.2750 ss         1 RZI      -0.063400
     21 H182       -44.0970   -24.1670    -0.2530 hc         1 RZI       0.078700
     22 H181       -45.6850   -23.4920    -0.8420 hc         1 RZI       0.078700
     23 H161       -46.6550   -25.7830    -0.9340 hc         1 RZI       0.108700
     24 H171       -45.4890   -24.8880    -2.9430 hc         1 RZI       0.078700
     25 H172       -43.9030   -25.5610    -2.3370 hc         1 RZI       0.078700
     26 H121       -42.7540   -28.9370     1.5580 h4         1 RZI       0.168000
     27 H101       -46.1120   -30.4610     0.8840 h1         1 RZI       0.076200
     28 H102       -44.7350   -30.6280     1.9780 h1         1 RZI       0.076200
     29 H081       -48.2740   -29.4280     1.7870 h5         1 RZI       0.070800
     30 H011       -42.6990   -29.4590     5.9380 hn         1 RZI       0.481000
     31 H012       -43.4220   -28.9840     7.4120 hn         1 RZI       0.481000
     32 H051       -47.8370   -28.1810     7.8640 hn         1 RZI       0.506500
     33 H052       -48.9140   -28.2520     6.5050 hn         1 RZI       0.506500
@<TRIPOS>BOND
     1     1     2 1   
     2     1     3 1   
     3     1    21 1   
     4     1    22 1   
     5     2     3 1   
     6     2     4 1   
     7     2    23 1   
     8     3    24 1   
     9     3    25 1   
    10     4    18 2   
    11     4    20 1   
    12     5     6 2   
    13     5    20 1   
    14     5    26 1   
    15     6     7 1   
    16     6    18 1   
    17     7    17 1   
    18     7    27 1   
    19     7    28 1   
    20     8    11 ar  
    21     8    17 1   
    22     8    19 ar  
    23     9    13 1   
    24     9    14 ar  
    25     9    19 ar  
    26    10    11 ar  
    27    10    14 ar  
    28    10    15 1   
    29    11    16 1   
    30    12    16 2   
    31    12    17 1   
    32    12    29 1   
    33    13    30 1   
    34    13    31 1   
    35    15    32 1   
    36    15    33 1   
@<TRIPOS>SUBSTRUCTURE
     1 RZI         1 TEMP              0 ****  ****    0 ROOT
