@<TRIPOS>MOLECULE
RZJ
   29    30     1     0     0
SMALL
bcc


@<TRIPOS>ATOM
      1 C10          0.0390    -0.6220    -0.0160 ca         1 RZJ      -0.127000
      2 C01         -1.9500    -2.6080     0.0830 c3         1 RZJ       0.209100
      3 C03         -3.6780    -0.8500     0.2340 c6         1 RZJ       0.227800
      4 C04         -4.0040     0.5040    -0.3630 c6         1 RZJ      -0.088400
      5 C05         -3.0710     1.5550     0.2140 c6         1 RZJ      -0.031100
      6 C06         -1.6360     1.1150     0.1230 ca         1 RZJ      -0.099300
      7 C07         -0.6180     2.0550     0.1350 ca         1 RZJ      -0.108000
      8 C08          0.7230     1.7040     0.0830 ca         1 RZJ      -0.072000
      9 C09          1.0210     0.3540     0.0110 ca         1 RZJ      -0.225500
     10 C11         -1.3170    -0.2600     0.0310 ca         1 RZJ       0.185600
     11 N02         -2.2980    -1.2130    -0.0280 nh         1 RZJ      -0.685000
     12 N15          3.1570     0.0190     1.5370 n8         1 RZJ      -0.886700
     13 O13          2.7760    -1.5220    -0.5140 o          1 RZJ      -0.617800
     14 O14          3.4950     0.8550    -0.7750 o          1 RZJ      -0.617800
     15 S12          2.7180    -0.1410    -0.0500 sy         1 RZJ       1.259200
     16 H1           0.3270    -1.6610    -0.0800 ha         1 RZJ       0.153000
     17 H2          -2.8530    -3.2070    -0.0070 h1         1 RZJ       0.038033
     18 H3          -1.2750    -2.9210    -0.7170 h1         1 RZJ       0.038033
     19 H4          -1.4770    -2.8540     1.0400 h1         1 RZJ       0.038033
     20 H5          -3.8880    -0.8400     1.3120 h1         1 RZJ       0.038200
     21 H6          -4.3160    -1.6160    -0.2060 h1         1 RZJ       0.038200
     22 H7          -3.8990     0.4600    -1.4500 hc         1 RZJ       0.055700
     23 H8          -5.0430     0.7540    -0.1480 hc         1 RZJ       0.055700
     24 H9          -3.2000     2.5130    -0.2930 hc         1 RZJ       0.053200
     25 H10         -3.3280     1.7280     1.2640 hc         1 RZJ       0.053200
     26 H11         -0.8830     3.1050     0.1910 ha         1 RZJ       0.131000
     27 H12          1.4940     2.4620     0.0990 ha         1 RZJ       0.156000
     28 H13          2.7510    -0.7000     2.1270 hn         1 RZJ       0.413800
     29 H14          4.1680     0.0210     1.6400 hn         1 RZJ       0.413800
@<TRIPOS>BOND
     1     1     9 ar  
     2     1    10 ar  
     3     1    16 1   
     4     2    11 1   
     5     2    17 1   
     6     2    18 1   
     7     2    19 1   
     8     3     4 1   
     9     3    11 1   
    10     3    20 1   
    11     3    21 1   
    12     4     5 1   
    13     4    22 1   
    14     4    23 1   
    15     5     6 1   
    16     5    24 1   
    17     5    25 1   
    18     6     7 ar  
    19     6    10 ar  
    20     7     8 ar  
    21     7    26 1   
    22     8     9 ar  
    23     8    27 1   
    24     9    15 1   
    25    10    11 1   
    26    12    15 1   
    27    12    28 1   
    28    12    29 1   
    29    13    15 2   
    30    14    15 2   
@<TRIPOS>SUBSTRUCTURE
     1 RZJ         1 TEMP              0 ****  ****    0 ROOT
