@<TRIPOS>MOLECULE
RZJ
   29    30     1     0     0
SMALL
No Charge or Current Charge


@<TRIPOS>ATOM
      1 C10          0.1180    -0.5600     0.0290 ca         1 RZJ      -0.109000
      2 C01         -1.9310    -2.6960     0.0900 c3         1 RZJ       0.209100
      3 C03         -3.6940    -0.8910     0.3050 c6         1 RZJ       0.227800
      4 C04         -4.0150     0.4640    -0.3540 c6         1 RZJ      -0.088400
      5 C05         -3.0880     1.5640     0.1950 c6         1 RZJ      -0.031100
      6 C06         -1.6190     1.1420     0.1300 ca         1 RZJ      -0.099300
      7 C07         -0.6270     2.1410     0.1120 ca         1 RZJ      -0.090000
      8 C08          0.7310     1.7970     0.0490 ca         1 RZJ      -0.054000
      9 C09          1.1130     0.4430     0.0040 ca         1 RZJ      -0.225500
     10 C11         -1.2560    -0.2310     0.0940 ca         1 RZJ       0.324000
     11 N02         -2.2600    -1.2500     0.1280 nh         1 RZJ      -0.823400
     12 N15          3.2630    -0.0830     1.5100 n8         1 RZJ      -0.997100
     13 O13          3.0080    -1.3760    -0.5410 o          1 RZJ      -0.547000
     14 O14          3.6500     1.1100    -0.6100 o          1 RZJ      -0.547000
     15 S12          2.8600     0.0010    -0.0750 sy         1 RZJ       1.117600
     16 H1           0.4230    -1.6020    -0.0030 ha         1 RZJ       0.135000
     17 H2          -2.8390    -3.3110     0.1340 h1         1 RZJ       0.038033
     18 H3          -1.4020    -2.9450    -0.8400 h1         1 RZJ       0.038033
     19 H4          -1.2990    -2.9700     0.9450 h1         1 RZJ       0.038033
     20 H5          -3.9360    -0.8400     1.3770 h1         1 RZJ       0.038200
     21 H6          -4.3440    -1.6570    -0.1430 h1         1 RZJ       0.038200
     22 H7          -3.8860     0.3800    -1.4420 hc         1 RZJ       0.055700
     23 H8          -5.0660     0.7290    -0.1790 hc         1 RZJ       0.055700
     24 H9          -3.2460     2.4930    -0.3710 hc         1 RZJ       0.053200
     25 H10         -3.3550     1.7840     1.2380 hc         1 RZJ       0.053200
     26 H11         -0.9100     3.1900     0.1460 ha         1 RZJ       0.113000
     27 H12          1.4830     2.5860     0.0360 ha         1 RZJ       0.138000
     28 H13          2.3610    -0.2210     1.9590 hn         1 RZJ       0.469000
     29 H14          3.6980    -1.0020     1.5510 hn         1 RZJ       0.469000
@<TRIPOS>BOND
     1     1     9 ar  
     2     1    10 ar  
     3     1    16 1   
     4     2    11 1   
     5     2    17 1   
     6     2    18 1   
     7     2    19 1   
     8     3     4 1   
     9     3    11 1   
    10     3    20 1   
    11     3    21 1   
    12     4     5 1   
    13     4    22 1   
    14     4    23 1   
    15     5     6 1   
    16     5    24 1   
    17     5    25 1   
    18     6     7 ar  
    19     6    10 ar  
    20     7     8 ar  
    21     7    26 1   
    22     8     9 ar  
    23     8    27 1   
    24     9    15 1   
    25    10    11 1   
    26    12    15 1   
    27    12    28 1   
    28    12    29 1   
    29    13    15 2   
    30    14    15 2   
@<TRIPOS>SUBSTRUCTURE
     1 RZJ         1 TEMP              0 ****  ****    0 ROOT
