@<TRIPOS>MOLECULE
RZK
   29    30     1     0     0
SMALL
bcc


@<TRIPOS>ATOM
      1 C3         -31.1750     1.8020     0.7690 cc         1 RZK       0.563500
      2 C11        -27.8560     0.1620     1.3490 ca         1 RZK      -0.202000
      3 C12        -28.1350     0.5040    -1.0180 ca         1 RZK      -0.202000
      4 C15        -35.2950     2.3700    -0.2060 c3         1 RZK       0.133800
      5 C16        -25.5950    -0.6470    -1.3760 c3         1 RZK       0.125700
      6 N1         -31.9450     2.3420    -0.1590 nd         1 RZK      -0.517800
      7 N2         -31.7510     1.8900     1.9810 nc         1 RZK      -0.387000
      8 N4         -32.8850     2.4860     1.8050 nd         1 RZK      -0.187800
      9 N5         -32.9770     2.7470     0.5360 na         1 RZK       0.288900
     10 C6         -29.8730     1.1980     0.5180 ca         1 RZK      -0.163500
     11 C7         -34.1540     3.3620    -0.0480 c3         1 RZK       0.063300
     12 C8         -29.3760     1.0750    -0.7750 ca         1 RZK      -0.056000
     13 C9         -29.0920     0.7300     1.5780 ca         1 RZK      -0.056000
     14 C10        -27.3620     0.0440     0.0460 ca         1 RZK       0.155100
     15 N13        -34.9060     1.2530    -1.0420 n8         1 RZK      -0.883800
     16 O14        -26.1510    -0.5180    -0.0820 os         1 RZK      -0.315900
     17 H1         -27.2590    -0.1950     2.1790 ha         1 RZK       0.141000
     18 H2         -27.7920     0.4280    -2.0410 ha         1 RZK       0.141000
     19 H3         -36.1570     2.9410    -0.5750 h1         1 RZK       0.046200
     20 H4         -35.5720     1.9920     0.7800 h1         1 RZK       0.046200
     21 H5         -24.6180    -1.1080    -1.2470 h1         1 RZK       0.041367
     22 H6         -26.2040    -1.2860    -2.0200 h1         1 RZK       0.041367
     23 H7         -25.4650     0.3230    -1.8620 h1         1 RZK       0.041367
     24 H8         -33.8490     3.7740    -1.0080 h1         1 RZK       0.076200
     25 H9         -34.4530     4.1880     0.5950 h1         1 RZK       0.076200
     26 H10        -29.9600     1.4250    -1.6160 ha         1 RZK       0.148000
     27 H11        -29.4520     0.8140     2.5950 ha         1 RZK       0.148000
     28 H12        -35.6220     0.5400    -1.0100 hn         1 RZK       0.346800
     29 H13        -34.8470     1.5500    -2.0080 hn         1 RZK       0.346800
@<TRIPOS>BOND
     1     1     6 2   
     2     1     7 1   
     3     1    10 1   
     4     2    13 ar  
     5     2    14 ar  
     6     2    17 1   
     7     3    12 ar  
     8     3    14 ar  
     9     3    18 1   
    10     4    11 1   
    11     4    15 1   
    12     4    19 1   
    13     4    20 1   
    14     5    16 1   
    15     5    21 1   
    16     5    22 1   
    17     5    23 1   
    18     6     9 1   
    19     7     8 2   
    20     8     9 1   
    21     9    11 1   
    22    10    12 ar  
    23    10    13 ar  
    24    11    24 1   
    25    11    25 1   
    26    12    26 1   
    27    13    27 1   
    28    14    16 1   
    29    15    28 1   
    30    15    29 1   
@<TRIPOS>SUBSTRUCTURE
     1 RZK         1 TEMP              0 ****  ****    0 ROOT
