@<TRIPOS>MOLECULE
RZK
   29    30     1     0     0
SMALL
No Charge or Current Charge


@<TRIPOS>ATOM
      1 C3         -31.1660     1.7370     0.6760 cc         1 RZK       0.563500
      2 C11        -27.8180     0.0650     1.3650 ca         1 RZK      -0.184000
      3 C12        -27.9670     0.5560    -1.0070 ca         1 RZK      -0.184000
      4 C15        -35.4730     2.5180    -0.0920 c3         1 RZK       0.133800
      5 C16        -25.3210    -0.6130    -1.3170 c3         1 RZK       0.148900
      6 N1         -31.8830     2.2480    -0.2980 nd         1 RZK      -0.517800
      7 N2         -31.7370     1.7860     1.9150 nc         1 RZK      -0.387000
      8 N4         -32.8960     2.3570     1.7560 nd         1 RZK      -0.187800
      9 N5         -32.9850     2.6200     0.4140 na         1 RZK       0.259600
     10 C6         -29.8270     1.1520     0.4780 ca         1 RZK      -0.163500
     11 C7         -34.1410     3.3050    -0.1920 c3         1 RZK       0.092600
     12 C8         -29.2440     1.1120    -0.8100 ca         1 RZK      -0.038000
     13 C9         -29.0940     0.6200     1.5650 ca         1 RZK      -0.038000
     14 C10        -27.2480     0.0290     0.0850 ca         1 RZK       0.155100
     15 N13        -35.4910     1.2610    -0.8850 n8         1 RZK      -0.994200
     16 O14        -25.9930    -0.5280    -0.0470 os         1 RZK      -0.339100
     17 H1         -27.2670    -0.3400     2.2100 ha         1 RZK       0.123000
     18 H2         -27.5550     0.5450    -2.0120 ha         1 RZK       0.123000
     19 H3         -36.2900     3.1620    -0.4470 h1         1 RZK       0.046200
     20 H4         -35.6730     2.2750     0.9610 h1         1 RZK       0.046200
     21 H5         -24.3400    -1.0890    -1.1970 h1         1 RZK       0.041367
     22 H6         -25.9040    -1.2130    -2.0270 h1         1 RZK       0.041367
     23 H7         -25.1650     0.3860    -1.7430 h1         1 RZK       0.041367
     24 H8         -33.9180     3.5160    -1.2440 h1         1 RZK       0.076200
     25 H9         -34.2620     4.2670     0.3190 h1         1 RZK       0.076200
     26 H10        -29.7780     1.5120    -1.6700 ha         1 RZK       0.130000
     27 H11        -29.5050     0.6310     2.5730 ha         1 RZK       0.130000
     28 H12        -36.4180     0.8230    -0.8050 hn         1 RZK       0.402000
     29 H13        -35.4210     1.4860    -1.8870 hn         1 RZK       0.402000
@<TRIPOS>BOND
     1     1     6 2   
     2     1     7 1   
     3     1    10 1   
     4     2    13 ar  
     5     2    14 ar  
     6     2    17 1   
     7     3    12 ar  
     8     3    14 ar  
     9     3    18 1   
    10     4    11 1   
    11     4    15 1   
    12     4    19 1   
    13     4    20 1   
    14     5    16 1   
    15     5    21 1   
    16     5    22 1   
    17     5    23 1   
    18     6     9 1   
    19     7     8 2   
    20     8     9 1   
    21     9    11 1   
    22    10    12 ar  
    23    10    13 ar  
    24    11    24 1   
    25    11    25 1   
    26    12    26 1   
    27    13    27 1   
    28    14    16 1   
    29    15    28 1   
    30    15    29 1   
@<TRIPOS>SUBSTRUCTURE
     1 RZK         1 TEMP              0 ****  ****    0 ROOT
