@<TRIPOS>MOLECULE
RZL
   48    50     1     0     0
SMALL
abcg2


@<TRIPOS>ATOM
      1 C13        -18.7400   -20.4870    -4.9680 ca         1 RZL       0.013000
      2 C12        -17.9070   -19.9740    -3.9680 ca         1 RZL      -0.127000
      3 C18        -20.9300   -16.1600    -6.5200 ce         1 RZL       0.685800
      4 C02        -18.4770   -21.4170     2.7140 ca         1 RZL      -0.039900
      5 C03        -17.2050   -21.9320     2.9250 ca         1 RZL      -0.051500
      6 C04        -16.1590   -21.4940     2.1280 ca         1 RZL      -0.158500
      7 C05        -16.3760   -20.5500     1.1230 ca         1 RZL       0.135100
      8 C07        -15.2000   -19.0360    -0.4310 c3         1 RZL       0.112000
      9 C08        -15.4340   -17.7850     0.4040 c3         1 RZL      -0.096100
     10 C09        -16.1690   -19.1180    -1.6330 c          1 RZL       0.579100
     11 C11        -17.2320   -20.8330    -3.1020 ca         1 RZL      -0.023000
     12 C14        -19.4480   -19.5640    -5.8720 cc         1 RZL      -0.058000
     13 C15        -19.8760   -19.8880    -7.1390 cd         1 RZL      -0.232000
     14 C17        -20.4310   -17.5490    -6.5490 cc         1 RZL      -0.327900
     15 C21        -19.7740   -18.2130    -5.5480 cd         1 RZL      -0.089000
     16 C22        -18.8870   -21.8720    -5.0920 ca         1 RZL      -0.124000
     17 C23        -18.2050   -22.7240    -4.2330 ca         1 RZL      -0.082000
     18 C24        -17.3810   -22.2160    -3.2400 ca         1 RZL      -0.158000
     19 C26        -13.7750   -19.0500    -0.9860 c3         1 RZL      -0.096100
     20 C27        -17.6600   -20.0450     0.9200 ca         1 RZL      -0.158500
     21 C28        -18.7120   -20.4800     1.7220 ca         1 RZL      -0.051500
     22 N10        -16.3890   -20.3810    -2.0730 ns         1 RZL      -0.138000
     23 N19        -21.0660   -15.5570    -7.7430 nv         1 RZL      -1.038200
     24 N20        -21.2680   -15.5390    -5.4460 n2         1 RZL      -0.833100
     25 O06        -15.2740   -20.2370     0.3740 os         1 RZL      -0.375100
     26 O25        -16.6340   -18.1060    -2.1390 o          1 RZL      -0.581100
     27 S16        -20.6580   -18.5840    -7.9230 ss         1 RZL       0.242000
     28 H121       -17.7690   -18.9110    -3.8650 ha         1 RZL       0.149000
     29 H031       -17.0250   -22.6630     3.7010 ha         1 RZL       0.133500
     30 H041       -15.1590   -21.8800     2.2760 ha         1 RZL       0.131000
     31 H083       -14.7350   -17.7880     1.2400 hc         1 RZL       0.058867
     32 H082       -15.2490   -16.9020    -0.2040 hc         1 RZL       0.058867
     33 H081       -16.4480   -17.7230     0.7920 hc         1 RZL       0.058867
     34 H151       -19.7590   -20.8260    -7.6570 h4         1 RZL       0.153000
     35 H211       -19.5320   -17.7470    -4.6040 ha         1 RZL       0.146000
     36 H221       -19.5450   -22.2830    -5.8460 ha         1 RZL       0.116000
     37 H231       -18.3230   -23.7950    -4.3310 ha         1 RZL       0.116000
     38 H241       -16.8570   -22.8820    -2.5650 ha         1 RZL       0.115000
     39 H261       -13.0660   -18.9640    -0.1630 hc         1 RZL       0.058867
     40 H263       -13.5820   -19.9750    -1.5280 hc         1 RZL       0.058867
     41 H262       -13.6340   -18.2070    -1.6630 hc         1 RZL       0.058867
     42 H271       -17.8720   -19.3190     0.1520 ha         1 RZL       0.131000
     43 H281       -19.7040   -20.0830     1.5590 ha         1 RZL       0.133500
     44 H101       -15.9410   -21.1080    -1.5330 hn         1 RZL       0.167000
     45 H192       -21.3050   -14.5760    -7.7230 hn         1 RZL       0.471000
     46 H201       -21.2130   -16.1590    -4.6430 hn         1 RZL       0.391400
     47 H191       -20.4330   -15.8220    -8.4820 hn         1 RZL       0.471000
     48 BR1        -19.9290   -22.0130     3.8150 br         1 RZL      -0.106100
@<TRIPOS>BOND
     1     1     2 ar  
     2     1    12 1   
     3     1    16 ar  
     4     2    11 ar  
     5     2    28 1   
     6     3    14 1   
     7     3    23 1   
     8     3    24 2   
     9     4     5 ar  
    10     4    21 ar  
    11     4    48 1   
    12     5     6 ar  
    13     5    29 1   
    14     6     7 ar  
    15     6    30 1   
    16     7    20 ar  
    17     7    25 1   
    18     8     9 1   
    19     8    10 1   
    20     8    19 1   
    21     8    25 1   
    22     9    31 1   
    23     9    32 1   
    24     9    33 1   
    25    10    22 1   
    26    10    26 2   
    27    11    18 ar  
    28    11    22 1   
    29    12    13 2   
    30    12    15 1   
    31    13    27 1   
    32    13    34 1   
    33    14    15 2   
    34    14    27 1   
    35    15    35 1   
    36    16    17 ar  
    37    16    36 1   
    38    17    18 ar  
    39    17    37 1   
    40    18    38 1   
    41    19    39 1   
    42    19    40 1   
    43    19    41 1   
    44    20    21 ar  
    45    20    42 1   
    46    21    43 1   
    47    22    44 1   
    48    23    45 1   
    49    23    47 1   
    50    24    46 1   
@<TRIPOS>SUBSTRUCTURE
     1 RZL         1 TEMP              0 ****  ****    0 ROOT
