@<TRIPOS>MOLECULE
RZL
   48    50     1     0     0
SMALL
No Charge or Current Charge


@<TRIPOS>ATOM
      1 C13        -18.9820   -20.3370    -4.8800 ca         1 RZL       0.013000
      2 C12        -18.0770   -19.8220    -3.9280 ca         1 RZL      -0.127000
      3 C18        -20.7600   -16.1710    -7.0410 ce         1 RZL       0.685800
      4 C02        -18.1110   -21.9820     2.6990 ca         1 RZL      -0.039900
      5 C03        -16.7860   -22.4430     2.7100 ca         1 RZL      -0.051500
      6 C04        -15.8160   -21.7970     1.9240 ca         1 RZL      -0.158500
      7 C05        -16.1550   -20.6890     1.1310 ca         1 RZL       0.135100
      8 C07        -15.1950   -18.8760    -0.3680 c3         1 RZL       0.112000
      9 C08        -15.4540   -17.7230     0.6460 c3         1 RZL      -0.096100
     10 C09        -16.2250   -18.9050    -1.5510 c          1 RZL       0.579100
     11 C11        -17.5810   -20.6360    -2.8860 ca         1 RZL      -0.023000
     12 C14        -19.4940   -19.4880    -5.9590 cc         1 RZL      -0.058000
     13 C15        -19.6600   -19.9720    -7.2250 cd         1 RZL      -0.232000
     14 C17        -20.2950   -17.5370    -6.8840 cc         1 RZL      -0.327900
     15 C21        -19.8340   -18.1820    -5.7520 cd         1 RZL      -0.089000
     16 C22        -19.3830   -21.6840    -4.7840 ca         1 RZL      -0.124000
     17 C23        -18.8900   -22.5020    -3.7560 ca         1 RZL      -0.082000
     18 C24        -17.9910   -21.9790    -2.8140 ca         1 RZL      -0.158000
     19 C26        -13.7750   -18.7230    -0.9640 c3         1 RZL      -0.096100
     20 C27        -17.4950   -20.2340     1.1200 ca         1 RZL      -0.158500
     21 C28        -18.4670   -20.8800     1.9050 ca         1 RZL      -0.051500
     22 N10        -16.6660   -20.1760    -1.9020 ns         1 RZL      -0.138000
     23 N19        -21.0840   -15.6940    -8.2500 nv         1 RZL      -1.038200
     24 N20        -20.8240   -15.3780    -6.0590 n2         1 RZL      -0.833100
     25 O06        -15.1350   -20.1270     0.3770 os         1 RZL      -0.375100
     26 O25        -16.6370   -17.8760    -2.0790 o          1 RZL      -0.581100
     27 S16        -20.2900   -18.6780    -8.2470 ss         1 RZL       0.242000
     28 H121       -17.7510   -18.7920    -4.0280 ha         1 RZL       0.149000
     29 H031       -16.5100   -23.2990     3.3230 ha         1 RZL       0.133500
     30 H041       -14.7900   -22.1570     1.9310 ha         1 RZL       0.131000
     31 H083       -14.7910   -17.8140     1.5150 hc         1 RZL       0.058867
     32 H082       -15.2600   -16.7500     0.1780 hc         1 RZL       0.058867
     33 H081       -16.4870   -17.7050     1.0070 hc         1 RZL       0.058867
     34 H151       -19.4580   -20.9580    -7.6230 h4         1 RZL       0.153000
     35 H211       -19.7530   -17.7030    -4.7810 ha         1 RZL       0.146000
     36 H221       -20.0850   -22.0980    -5.5050 ha         1 RZL       0.116000
     37 H231       -19.2050   -23.5410    -3.6900 ha         1 RZL       0.116000
     38 H241       -17.6160   -22.6220    -2.0200 ha         1 RZL       0.115000
     39 H261       -13.0160   -18.7180    -0.1710 hc         1 RZL       0.058867
     40 H263       -13.5480   -19.5500    -1.6470 hc         1 RZL       0.058867
     41 H262       -13.6850   -17.7850    -1.5260 hc         1 RZL       0.058867
     42 H271       -17.8120   -19.3960     0.5100 ha         1 RZL       0.131000
     43 H281       -19.4970   -20.5290     1.8930 ha         1 RZL       0.133500
     44 H101       -16.2620   -20.9150    -1.3390 hn         1 RZL       0.167000
     45 H192       -21.1320   -14.6840    -8.2820 hn         1 RZL       0.471000
     46 H201       -20.5540   -15.9070    -5.2230 hn         1 RZL       0.391400
     47 H191       -20.6340   -16.1410    -9.0370 hn         1 RZL       0.471000
     48 Br1        -19.4370   -22.8590     3.7630 br         1 RZL      -0.106100
@<TRIPOS>BOND
     1     1     2 ar  
     2     1    12 1   
     3     1    16 ar  
     4     2    11 ar  
     5     2    28 1   
     6     3    14 1   
     7     3    23 1   
     8     3    24 2   
     9     4     5 ar  
    10     4    21 ar  
    11     4    48 1   
    12     5     6 ar  
    13     5    29 1   
    14     6     7 ar  
    15     6    30 1   
    16     7    20 ar  
    17     7    25 1   
    18     8     9 1   
    19     8    10 1   
    20     8    19 1   
    21     8    25 1   
    22     9    31 1   
    23     9    32 1   
    24     9    33 1   
    25    10    22 1   
    26    10    26 2   
    27    11    18 ar  
    28    11    22 1   
    29    12    13 2   
    30    12    15 1   
    31    13    27 1   
    32    13    34 1   
    33    14    15 2   
    34    14    27 1   
    35    15    35 1   
    36    16    17 ar  
    37    16    36 1   
    38    17    18 ar  
    39    17    37 1   
    40    18    38 1   
    41    19    39 1   
    42    19    40 1   
    43    19    41 1   
    44    20    21 ar  
    45    20    42 1   
    46    21    43 1   
    47    22    44 1   
    48    23    45 1   
    49    23    47 1   
    50    24    46 1   
@<TRIPOS>SUBSTRUCTURE
     1 RZL         1 TEMP              0 ****  ****    0 ROOT
