@<TRIPOS>MOLECULE
RZM
   45    46     1     0     0
SMALL
bcc


@<TRIPOS>ATOM
      1 O6          -2.3420     3.3430     0.6190 oh         1 RZM      -0.605800
      2 C6          -1.6110     2.4160    -0.1540 c3         1 RZM       0.145400
      3 C5          -2.0320     1.0200     0.2470 c5         1 RZM       0.169500
      4 C2          -3.5900    -0.7200    -0.2010 c5         1 RZM       0.145500
      5 C1          -4.3530    -1.3080     0.9720 c3         1 RZM       0.111400
      6 O1          -5.6630    -0.7870     0.9640 oh         1 RZM      -0.591800
      7 C3          -2.1610    -1.2890    -0.2690 c5         1 RZM       0.103100
      8 O3          -1.9390    -2.2610    -1.2620 oh         1 RZM      -0.599800
      9 C4          -1.2990    -0.0640    -0.5260 c5         1 RZM       0.152100
     10 O4           0.0240    -0.2420    -0.0990 os         1 RZM      -0.431600
     11 C10          0.9940    -0.4610    -1.0750 c6         1 RZM       0.310900
     12 C9           1.8490    -1.6700    -0.6810 c6         1 RZM       0.096100
     13 O2           1.0770    -2.8060    -0.3870 oh         1 RZM      -0.602800
     14 C11          2.6990    -1.3360     0.5370 c6         1 RZM       0.114100
     15 O8           3.6300    -2.3550     0.8270 oh         1 RZM      -0.606800
     16 C12          3.4900    -0.0570     0.2890 c6         1 RZM       0.123100
     17 O9           4.1820     0.3490     1.4440 oh         1 RZM      -0.596800
     18 C8           2.5350     1.0650    -0.1160 c6         1 RZM       0.144100
     19 C7           3.2670     2.3410    -0.4720 c3         1 RZM       0.146400
     20 O7           2.3180     3.3380    -0.7700 oh         1 RZM      -0.592800
     21 O5           1.7930     0.6660    -1.2580 os         1 RZM      -0.400600
     22 N5          -3.4080     0.7310    -0.1220 n7         1 RZM      -0.816200
     23 H1          -2.0720     4.2290     0.3610 ho         1 RZM       0.408000
     24 H2          -1.8050     2.5410    -1.2280 h1         1 RZM       0.040200
     25 H3          -0.5300     2.5270    -0.0010 h1         1 RZM       0.040200
     26 H4          -1.8290     0.8870     1.3240 h1         1 RZM       0.045700
     27 H5          -4.1240    -0.9800    -1.1240 h1         1 RZM       0.089700
     28 H6          -4.3520    -2.4040     0.8860 h1         1 RZM       0.019700
     29 H7          -3.8260    -1.0570     1.9030 h1         1 RZM       0.019700
     30 H8          -6.1160    -1.0950     1.7540 ho         1 RZM       0.407000
     31 H9          -1.8790    -1.6830     0.7190 h1         1 RZM       0.047700
     32 H10         -2.3360    -3.0910    -0.9800 ho         1 RZM       0.412000
     33 H11         -1.3380     0.1860    -1.5960 h1         1 RZM       0.073700
     34 H12          0.5270    -0.6490    -2.0500 h2         1 RZM       0.079700
     35 H13          2.5240    -1.8610    -1.5290 h1         1 RZM       0.059700
     36 H14          0.3040    -2.8380    -0.9630 ho         1 RZM       0.425000
     37 H15          2.0330    -1.1650     1.3950 h1         1 RZM       0.064700
     38 H16          3.1680    -3.0840     1.2500 ho         1 RZM       0.424000
     39 H17          4.1880    -0.2350    -0.5460 h1         1 RZM       0.050700
     40 H18          4.7460    -0.3810     1.7220 ho         1 RZM       0.425000
     41 H19          1.8590     1.2770     0.7240 h1         1 RZM       0.074700
     42 H20          3.8950     2.6220     0.3800 h1         1 RZM       0.036200
     43 H21          3.9390     2.1490    -1.3200 h1         1 RZM       0.036200
     44 H22          2.7840     4.1750    -0.8470 ho         1 RZM       0.403000
     45 H23         -4.0810     1.1760     0.4860 hn         1 RZM       0.398800
@<TRIPOS>BOND
     1     1     2 1   
     2     1    23 1   
     3     2     3 1   
     4     2    24 1   
     5     2    25 1   
     6     3     9 1   
     7     3    22 1   
     8     3    26 1   
     9     4     5 1   
    10     4     7 1   
    11     4    22 1   
    12     4    27 1   
    13     5     6 1   
    14     5    28 1   
    15     5    29 1   
    16     6    30 1   
    17     7     8 1   
    18     7     9 1   
    19     7    31 1   
    20     8    32 1   
    21     9    10 1   
    22     9    33 1   
    23    10    11 1   
    24    11    12 1   
    25    11    21 1   
    26    11    34 1   
    27    12    13 1   
    28    12    14 1   
    29    12    35 1   
    30    13    36 1   
    31    14    15 1   
    32    14    16 1   
    33    14    37 1   
    34    15    38 1   
    35    16    17 1   
    36    16    18 1   
    37    16    39 1   
    38    17    40 1   
    39    18    19 1   
    40    18    21 1   
    41    18    41 1   
    42    19    20 1   
    43    19    42 1   
    44    19    43 1   
    45    20    44 1   
    46    22    45 1   
@<TRIPOS>SUBSTRUCTURE
     1 RZM         1 TEMP              0 ****  ****    0 ROOT
