@<TRIPOS>MOLECULE
RZM
   45    46     1     0     0
SMALL
No Charge or Current Charge


@<TRIPOS>ATOM
      1 O6          -2.7370     3.3670     1.1850 oh         1 RZM      -0.668000
      2 C6          -1.9350     2.6080     0.2580 c3         1 RZM       0.168600
      3 C5          -2.1880     1.0790     0.4120 c5         1 RZM       0.169500
      4 C2          -3.5090    -0.8040    -0.2640 c5         1 RZM       0.145500
      5 C1          -4.3810    -1.6790     0.6890 c3         1 RZM       0.134600
      6 O1          -5.7400    -1.2130     0.7330 oh         1 RZM      -0.654000
      7 C3          -1.9820    -1.1870    -0.2170 c5         1 RZM       0.126300
      8 O3          -1.5860    -2.2270    -1.1330 oh         1 RZM      -0.722000
      9 C4          -1.3440     0.1960    -0.5440 c5         1 RZM       0.175300
     10 O4           0.0450     0.2010    -0.1230 os         1 RZM      -0.478000
     11 C10          0.9910    -0.3910    -1.0390 c6         1 RZM       0.357300
     12 C9           1.7240    -1.6350    -0.4230 c6         1 RZM       0.119300
     13 O2           0.8160    -2.6700     0.0340 oh         1 RZM      -0.725000
     14 C11          2.6310    -1.1690     0.7510 c6         1 RZM       0.137300
     15 O8           3.3570    -2.2880     1.2910 oh         1 RZM      -0.669000
     16 C12          3.6080    -0.0570     0.2700 c6         1 RZM       0.146300
     17 O9           4.4280     0.3730     1.3730 oh         1 RZM      -0.719000
     18 C8           2.7880     1.1170    -0.3540 c6         1 RZM       0.167300
     19 C7           3.7080     2.2440    -0.9300 c3         1 RZM       0.169600
     20 O7           2.9780     3.3160    -1.5620 oh         1 RZM      -0.715000
     21 O5           1.9450     0.6170    -1.4310 os         1 RZM      -0.447000
     22 N5          -3.5800     0.6590     0.0690 n7         1 RZM      -0.871400
     23 H1          -2.5860     4.3170     0.9820 ho         1 RZM       0.447000
     24 H2          -2.1620     2.9010    -0.7760 h1         1 RZM       0.040200
     25 H3          -0.8680     2.8050     0.4320 h1         1 RZM       0.040200
     26 H4          -1.9620     0.8070     1.4540 h1         1 RZM       0.045700
     27 H5          -3.8950    -0.9520    -1.2830 h1         1 RZM       0.089700
     28 H6          -4.3480    -2.7220     0.3450 h1         1 RZM       0.019700
     29 H7          -3.9450    -1.6480     1.6970 h1         1 RZM       0.019700
     30 H8          -6.2330    -1.8140     1.3360 ho         1 RZM       0.446000
     31 H9          -1.7090    -1.4780     0.8080 h1         1 RZM       0.047700
     32 H10         -2.3900    -2.7570    -1.3560 ho         1 RZM       0.511000
     33 H11         -1.4480     0.4960    -1.5970 h1         1 RZM       0.073700
     34 H12          0.4610    -0.7270    -1.9440 h2         1 RZM       0.079700
     35 H13          2.3720    -2.0450    -1.2120 h1         1 RZM       0.059700
     36 H14         -0.0640    -2.5010    -0.4140 ho         1 RZM       0.524000
     37 H15          1.9800    -0.7390     1.5280 h1         1 RZM       0.064700
     38 H16          2.7190    -3.0390     1.2440 ho         1 RZM       0.463000
     39 H17          4.2470    -0.4810    -0.5200 h1         1 RZM       0.050700
     40 H18          4.6330    -0.4570     1.8690 ho         1 RZM       0.524000
     41 H19          2.1500     1.5660     0.4220 h1         1 RZM       0.074700
     42 H20          4.3170     2.6430    -0.1070 h1         1 RZM       0.036200
     43 H21          4.3990     1.7830    -1.6500 h1         1 RZM       0.036200
     44 H22          3.6460     3.9330    -1.9440 ho         1 RZM       0.502000
     45 H23         -4.2110     0.8130     0.8670 hn         1 RZM       0.454000
@<TRIPOS>BOND
     1     1     2 1   
     2     1    23 1   
     3     2     3 1   
     4     2    24 1   
     5     2    25 1   
     6     3     9 1   
     7     3    22 1   
     8     3    26 1   
     9     4     5 1   
    10     4     7 1   
    11     4    22 1   
    12     4    27 1   
    13     5     6 1   
    14     5    28 1   
    15     5    29 1   
    16     6    30 1   
    17     7     8 1   
    18     7     9 1   
    19     7    31 1   
    20     8    32 1   
    21     9    10 1   
    22     9    33 1   
    23    10    11 1   
    24    11    12 1   
    25    11    21 1   
    26    11    34 1   
    27    12    13 1   
    28    12    14 1   
    29    12    35 1   
    30    13    36 1   
    31    14    15 1   
    32    14    16 1   
    33    14    37 1   
    34    15    38 1   
    35    16    17 1   
    36    16    18 1   
    37    16    39 1   
    38    17    40 1   
    39    18    19 1   
    40    18    21 1   
    41    18    41 1   
    42    19    20 1   
    43    19    42 1   
    44    19    43 1   
    45    20    44 1   
    46    22    45 1   
@<TRIPOS>SUBSTRUCTURE
     1 RZM         1 TEMP              0 ****  ****    0 ROOT
