@<TRIPOS>MOLECULE
RZN
   27    28     1     0     0
SMALL
abcg2


@<TRIPOS>ATOM
      1 C2         -25.4530     0.4570    -1.5670 ca         1 RZN       0.125100
      2 C3         -27.1960     0.1870     0.0110 ca         1 RZN       0.117100
      3 O1         -26.0020    -0.2210    -0.5150 os         1 RZN      -0.256200
      4 C11        -27.3240     0.1600     1.3930 ca         1 RZN      -0.140000
      5 C12        -28.2690     0.5570    -0.7920 ca         1 RZN      -0.140000
      6 C13        -29.4730     0.9050    -0.1970 ca         1 RZN      -0.090000
      7 C14        -28.5380     0.5010     1.9740 ca         1 RZN      -0.090000
      8 C15        -29.6140     0.8800     1.1840 ca         1 RZN      -0.128000
      9 C4         -24.1940     1.7340    -3.7090 ca         1 RZN      -0.108300
     10 C5         -25.4710     1.8420    -1.6510 ca         1 RZN      -0.146000
     11 C6         -24.8100    -0.2950    -2.5430 ca         1 RZN      -0.146000
     12 C7         -24.8490     2.4650    -2.7250 ca         1 RZN      -0.069000
     13 C8         -24.1840     0.3450    -3.6000 ca         1 RZN      -0.069000
     14 O9         -24.0540     1.9180    -6.0700 oh         1 RZN      -0.655000
     15 C10        -23.5140     2.4130    -4.8630 c3         1 RZN       0.212900
     16 H1         -26.4800    -0.1320     2.0060 ha         1 RZN       0.128000
     17 H2         -28.1730     0.5710    -1.8710 ha         1 RZN       0.128000
     18 H3         -30.3080     1.1930    -0.8230 ha         1 RZN       0.114500
     19 H4         -28.6350     0.4770     3.0520 ha         1 RZN       0.114500
     20 H5         -30.5570     1.1510     1.6400 ha         1 RZN       0.115000
     21 H6         -25.9650     2.4390    -0.8940 ha         1 RZN       0.128500
     22 H7         -24.7990    -1.3750    -2.4700 ha         1 RZN       0.128500
     23 H8         -24.8750     3.5460    -2.7870 ha         1 RZN       0.117000
     24 H9         -23.6830    -0.2530    -4.3510 ha         1 RZN       0.117000
     25 H10        -23.4800     2.1960    -6.7890 ho         1 RZN       0.442000
     26 H11        -22.4350     2.2220    -4.8080 h1         1 RZN       0.024700
     27 H12        -23.6450     3.4990    -4.7720 h1         1 RZN       0.024700
@<TRIPOS>BOND
     1     1     3 1   
     2     1    10 ar  
     3     1    11 ar  
     4     2     3 1   
     5     2     4 ar  
     6     2     5 ar  
     7     4     7 ar  
     8     4    16 1   
     9     5     6 ar  
    10     5    17 1   
    11     6     8 ar  
    12     6    18 1   
    13     7     8 ar  
    14     7    19 1   
    15     8    20 1   
    16     9    12 ar  
    17     9    13 ar  
    18     9    15 1   
    19    10    12 ar  
    20    10    21 1   
    21    11    13 ar  
    22    11    22 1   
    23    12    23 1   
    24    13    24 1   
    25    14    15 1   
    26    14    25 1   
    27    15    26 1   
    28    15    27 1   
@<TRIPOS>SUBSTRUCTURE
     1 RZN         1 TEMP              0 ****  ****    0 ROOT
