@<TRIPOS>MOLECULE
RZN
   27    28     1     0     0
SMALL
No Charge or Current Charge


@<TRIPOS>ATOM
      1 C2         -25.3790     0.4340    -1.5180 ca         1 RZN       0.125100
      2 C3         -27.1840     0.1860     0.0740 ca         1 RZN       0.117100
      3 O1         -25.9590    -0.1850    -0.4340 os         1 RZN      -0.256200
      4 C11        -27.3820     0.1510     1.4650 ca         1 RZN      -0.140000
      5 C12        -28.2430     0.5600    -0.7770 ca         1 RZN      -0.140000
      6 C13        -29.4880     0.9210    -0.2330 ca         1 RZN      -0.090000
      7 C14        -28.6270     0.5120     2.0090 ca         1 RZN      -0.090000
      8 C15        -29.6790     0.8980     1.1600 ca         1 RZN      -0.128000
      9 C4         -24.1410     1.6590    -3.7380 ca         1 RZN      -0.108300
     10 C5         -25.4720     1.8280    -1.6970 ca         1 RZN      -0.146000
     11 C6         -24.6550    -0.3420    -2.4370 ca         1 RZN      -0.146000
     12 C7         -24.8580     2.4370    -2.8060 ca         1 RZN      -0.069000
     13 C8         -24.0410     0.2670    -3.5470 ca         1 RZN      -0.069000
     14 O9         -24.3730     2.3580    -6.0470 oh         1 RZN      -0.655000
     15 C10        -23.4720     2.3200    -4.9360 c3         1 RZN       0.212900
     16 H1         -26.5680    -0.1500     2.1190 ha         1 RZN       0.128000
     17 H2         -28.1040     0.5690    -1.8550 ha         1 RZN       0.128000
     18 H3         -30.3050     1.2130    -0.8890 ha         1 RZN       0.114500
     19 H4         -28.7770     0.4900     3.0870 ha         1 RZN       0.114500
     20 H5         -30.6430     1.1760     1.5810 ha         1 RZN       0.115000
     21 H6         -26.0130     2.4390    -0.9790 ha         1 RZN       0.128500
     22 H7         -24.5740    -1.4160    -2.2920 ha         1 RZN       0.128500
     23 H8         -24.9380     3.5140    -2.9410 ha         1 RZN       0.117000
     24 H9         -23.4880    -0.3430    -4.2580 ha         1 RZN       0.117000
     25 H10        -23.8910     2.7910    -6.7850 ho         1 RZN       0.442000
     26 H11        -22.5650     1.7590    -5.2000 h1         1 RZN       0.024700
     27 H12        -23.1610     3.3370    -4.6630 h1         1 RZN       0.024700
@<TRIPOS>BOND
     1     1     3 1   
     2     1    10 ar  
     3     1    11 ar  
     4     2     3 1   
     5     2     4 ar  
     6     2     5 ar  
     7     4     7 ar  
     8     4    16 1   
     9     5     6 ar  
    10     5    17 1   
    11     6     8 ar  
    12     6    18 1   
    13     7     8 ar  
    14     7    19 1   
    15     8    20 1   
    16     9    12 ar  
    17     9    13 ar  
    18     9    15 1   
    19    10    12 ar  
    20    10    21 1   
    21    11    13 ar  
    22    11    22 1   
    23    12    23 1   
    24    13    24 1   
    25    14    15 1   
    26    14    25 1   
    27    15    26 1   
    28    15    27 1   
@<TRIPOS>SUBSTRUCTURE
     1 RZN         1 TEMP              0 ****  ****    0 ROOT
