@<TRIPOS>MOLECULE
RZR
   44    46     1     0     0
SMALL
abcg2


@<TRIPOS>ATOM
      1 C18        -45.0700   -27.7480     1.0000 ca         1 RZR      -0.100300
      2 C16        -42.8670   -28.6550     1.0310 c5         1 RZR      -0.022100
      3 C17        -43.7580   -27.5230     0.5860 ca         1 RZR      -0.070300
      4 C13        -43.3460   -30.8450     2.2930 c          1 RZR       0.715000
      5 C12        -43.6990   -29.3550     2.1350 c5         1 RZR      -0.192700
      6 C11        -45.1610   -29.0630     1.7440 c5         1 RZR       0.153000
      7 C20        -45.7580   -25.6910    -0.0140 ca         1 RZR      -0.135000
      8 C19        -46.0780   -26.8410     0.7080 ca         1 RZR      -0.094000
      9 C01        -53.4330   -28.8440     9.6090 c3         1 RZR       0.115300
     10 C03        -51.7030   -29.1240     7.9010 c          1 RZR       0.659100
     11 C05        -49.6480   -29.2790     6.4760 ca         1 RZR       0.000000
     12 C06        -50.2600   -29.3680     5.2190 ca         1 RZR      -0.171500
     13 C07        -49.4780   -29.4570     4.0780 ca         1 RZR      -0.043000
     14 C08        -48.0840   -29.4440     4.1360 ca         1 RZR      -0.161600
     15 C21        -44.4470   -25.4640    -0.4330 ca         1 RZR      -0.127000
     16 C22        -43.4390   -26.3810    -0.1360 ca         1 RZR      -0.116000
     17 C24        -47.4800   -29.3580     5.3950 ca         1 RZR      -0.043000
     18 C25        -48.2460   -29.2820     6.5430 ca         1 RZR      -0.171500
     19 N02        -52.0440   -28.9450     9.2010 ns         1 RZR      -0.536900
     20 N10        -46.0530   -29.0580     2.8870 ns         1 RZR      -0.468900
     21 O14        -43.8620   -31.6520     1.4780 o          1 RZR      -0.725500
     22 O15        -42.5340   -31.1340     3.2100 o          1 RZR      -0.725500
     23 O26        -52.5440   -29.2290     7.0080 o          1 RZR      -0.626100
     24 H162       -42.6910   -29.3460     0.2000 hc         1 RZR       0.057200
     25 H161       -41.8930   -28.3220     1.3910 hc         1 RZR       0.057200
     26 H121       -43.4950   -28.8490     3.0820 hc         1 RZR       0.033700
     27 H111       -45.5140   -29.8460     1.0730 h1         1 RZR       0.126700
     28 H201       -46.5290   -24.9660    -0.2450 ha         1 RZR       0.094000
     29 H191       -47.0940   -27.0160     1.0410 ha         1 RZR       0.113000
     30 H013       -53.4580   -28.7060    10.6880 h1         1 RZR       0.038367
     31 H012       -53.9280   -27.9950     9.1330 h1         1 RZR       0.038367
     32 H011       -53.9850   -29.7510     9.3570 h1         1 RZR       0.038367
     33 H061       -51.3340   -29.3680     5.1450 ha         1 RZR       0.125000
     34 H071       -49.9580   -29.5300     3.1110 ha         1 RZR       0.131500
     35 H211       -44.2090   -24.5640    -0.9870 ha         1 RZR       0.092000
     36 H221       -42.4200   -26.1940    -0.4550 ha         1 RZR       0.102000
     37 H241       -46.4030   -29.3760     5.4960 ha         1 RZR       0.131500
     38 H251       -47.7610   -29.2260     7.5100 ha         1 RZR       0.125000
     39 H021       -51.3320   -28.8120     9.8990 hn         1 RZR       0.310500
     40 H041       -49.7480   -29.1180     8.4990 hn         1 RZR       0.139000
     41 H101       -45.7470   -28.5470     3.7000 hn         1 RZR       0.301500
     42 C09        -47.3140   -29.5420     2.8620 c          1 RZR       0.611700
     43 O23        -47.8140   -30.0400     1.8470 o          1 RZR      -0.614100
     44 N04        -50.3370   -29.1850     7.6820 ns         1 RZR      -0.163000
@<TRIPOS>BOND
     1     1     3 ar  
     2     1     6 1   
     3     1     8 ar  
     4     2     3 1   
     5     2     5 1   
     6     2    24 1   
     7     2    25 1   
     8     3    16 ar  
     9     4     5 1   
    10     4    21 1   
    11     4    22 1   
    12     5     6 1   
    13     5    26 1   
    14     6    20 1   
    15     6    27 1   
    16     7     8 ar  
    17     7    15 ar  
    18     7    28 1   
    19     8    29 1   
    20     9    19 1   
    21     9    30 1   
    22     9    31 1   
    23     9    32 1   
    24    10    19 1   
    25    10    23 2   
    26    10    44 1   
    27    11    12 ar  
    28    11    18 ar  
    29    11    44 1   
    30    12    13 ar  
    31    12    33 1   
    32    13    14 ar  
    33    13    34 1   
    34    14    17 ar  
    35    14    42 1   
    36    15    16 ar  
    37    15    35 1   
    38    16    36 1   
    39    17    18 ar  
    40    17    37 1   
    41    18    38 1   
    42    19    39 1   
    43    20    41 1   
    44    20    42 1   
    45    40    44 1   
    46    42    43 2   
@<TRIPOS>SUBSTRUCTURE
     1 RZR         1 TEMP              0 ****  ****    0 ROOT
