@<TRIPOS>MOLECULE
RZR
   44    46     1     0     0
SMALL
No Charge or Current Charge


@<TRIPOS>ATOM
      1 C18        -44.9860   -27.7650     0.9050 ca         1 RZR      -0.100300
      2 C16        -42.8180   -28.7720     1.0870 c5         1 RZR      -0.022100
      3 C17        -43.6420   -27.5990     0.6250 ca         1 RZR      -0.070300
      4 C13        -43.6160   -30.9370     2.2490 c          1 RZR       0.715000
      5 C12        -43.8160   -29.4080     2.1360 c5         1 RZR      -0.192700
      6 C11        -45.2610   -29.0780     1.5920 c5         1 RZR       0.153000
      7 C20        -45.4760   -25.6210    -0.1130 ca         1 RZR      -0.135000
      8 C19        -45.9250   -26.7860     0.5400 ca         1 RZR      -0.094000
      9 C01        -53.3400   -29.1750     9.9450 c3         1 RZR       0.115300
     10 C03        -51.7750   -29.2560     7.9850 c          1 RZR       0.659100
     11 C05        -49.7520   -29.0940     6.4120 ca         1 RZR       0.000000
     12 C06        -50.3140   -29.6060     5.2260 ca         1 RZR      -0.171500
     13 C07        -49.5440   -29.7060     4.0550 ca         1 RZR      -0.043000
     14 C08        -48.1930   -29.2960     4.0360 ca         1 RZR      -0.161600
     15 C21        -44.1040   -25.4510    -0.3960 ca         1 RZR      -0.127000
     16 C22        -43.1770   -26.4460    -0.0280 ca         1 RZR      -0.116000
     17 C24        -47.6320   -28.7820     5.2290 ca         1 RZR      -0.043000
     18 C25        -48.4070   -28.6850     6.3980 ca         1 RZR      -0.171500
     19 N02        -52.0410   -28.9660     9.3020 ns         1 RZR      -0.536900
     20 N10        -46.0830   -28.9910     2.8030 ns         1 RZR      -0.468900
     21 O14        -43.7830   -31.6420     1.2640 o          1 RZR      -0.725500
     22 O15        -43.2950   -31.4060     3.3300 o          1 RZR      -0.725500
     23 O26        -52.6260   -29.7200     7.2400 o          1 RZR      -0.626100
     24 H162       -42.5930   -29.4470     0.2530 hc         1 RZR       0.057200
     25 H161       -41.8660   -28.4790     1.5440 hc         1 RZR       0.057200
     26 H121       -43.6390   -28.9450     3.1150 hc         1 RZR       0.033700
     27 H111       -45.6040   -29.8270     0.8610 h1         1 RZR       0.126700
     28 H201       -46.1890   -24.8530    -0.4010 ha         1 RZR       0.094000
     29 H191       -46.9820   -26.9260     0.7560 ha         1 RZR       0.113000
     30 H013       -53.2840   -28.8630    10.9960 h1         1 RZR       0.038367
     31 H012       -54.1060   -28.5790     9.4320 h1         1 RZR       0.038367
     32 H011       -53.6100   -30.2380     9.8970 h1         1 RZR       0.038367
     33 H061       -51.3470   -29.9350     5.1880 ha         1 RZR       0.125000
     34 H071       -50.0080   -30.1060     3.1550 ha         1 RZR       0.131500
     35 H211       -43.7620   -24.5520    -0.9010 ha         1 RZR       0.092000
     36 H221       -42.1190   -26.3230    -0.2460 ha         1 RZR       0.102000
     37 H241       -46.5970   -28.4520     5.2730 ha         1 RZR       0.131500
     38 H251       -47.9530   -28.2870     7.3030 ha         1 RZR       0.125000
     39 H021       -51.2830   -28.5840     9.8550 hn         1 RZR       0.310500
     40 H041       -49.9110   -28.5840     8.3880 hn         1 RZR       0.139000
     41 H101       -45.7420   -28.6200     3.6780 hn         1 RZR       0.301500
     42 C09        -47.3960   -29.4180     2.7520 c          1 RZR       0.611700
     43 O23        -47.8940   -29.8690     1.7270 o          1 RZR      -0.614100
     44 N04        -50.4670   -28.9630     7.6340 ns         1 RZR      -0.163000
@<TRIPOS>BOND
     1     1     3 ar  
     2     1     6 1   
     3     1     8 ar  
     4     2     3 1   
     5     2     5 1   
     6     2    24 1   
     7     2    25 1   
     8     3    16 ar  
     9     4     5 1   
    10     4    21 1   
    11     4    22 1   
    12     5     6 1   
    13     5    26 1   
    14     6    20 1   
    15     6    27 1   
    16     7     8 ar  
    17     7    15 ar  
    18     7    28 1   
    19     8    29 1   
    20     9    19 1   
    21     9    30 1   
    22     9    31 1   
    23     9    32 1   
    24    10    19 1   
    25    10    23 2   
    26    10    44 1   
    27    11    12 ar  
    28    11    18 ar  
    29    11    44 1   
    30    12    13 ar  
    31    12    33 1   
    32    13    14 ar  
    33    13    34 1   
    34    14    17 ar  
    35    14    42 1   
    36    15    16 ar  
    37    15    35 1   
    38    16    36 1   
    39    17    18 ar  
    40    17    37 1   
    41    18    38 1   
    42    19    39 1   
    43    20    41 1   
    44    20    42 1   
    45    40    44 1   
    46    42    43 2   
@<TRIPOS>SUBSTRUCTURE
     1 RZR         1 TEMP              0 ****  ****    0 ROOT
