@<TRIPOS>MOLECULE
RZS
   20    20     1     0     0
SMALL
No Charge or Current Charge


@<TRIPOS>ATOM
      1 C10          1.2580     1.1620     0.0690 ca         1 RZS       0.441900
      2 C01         -4.5490     0.0300    -0.0120 c3         1 RZS      -0.112100
      3 C02         -3.1800    -0.6630     0.0580 c3         1 RZS       0.233800
      4 C04         -0.7650     0.1010    -0.0490 ca         1 RZS       0.647900
      5 C05         -0.1740    -1.1670    -0.0940 ca         1 RZS      -0.253000
      6 C06          1.2250    -1.2560    -0.0510 ca         1 RZS       0.013000
      7 C07          1.9540    -0.0580     0.0330 ca         1 RZS      -0.161000
      8 C08          3.3830    -0.0630     0.0800 cg         1 RZS       0.342000
      9 N03         -2.1060     0.3230    -0.0880 nu         1 RZS      -0.932100
     10 N09          4.5490    -0.0780     0.1190 n1         1 RZS      -0.470000
     11 N11         -0.0930     1.2450     0.0280 nb         1 RZS      -0.767000
     12 H1           1.7940     2.1090     0.1340 h4         1 RZS       0.026100
     13 H2          -4.6550     0.7670     0.7940 hc         1 RZS       0.048033
     14 H3          -4.6790     0.5400    -0.9740 hc         1 RZS       0.048033
     15 H4          -5.3520    -0.7090     0.0940 hc         1 RZS       0.048033
     16 H5          -3.0870    -1.1830     1.0220 h1         1 RZS       0.043700
     17 H6          -3.1150    -1.4140    -0.7410 h1         1 RZS       0.043700
     18 H7          -0.7810    -2.0630    -0.1620 ha         1 RZS       0.126000
     19 H8           1.7250    -2.2240    -0.0840 ha         1 RZS       0.125000
     20 H9          -2.3340     1.3080     0.0090 hn         1 RZS       0.508000
@<TRIPOS>BOND
     1     1     7 ar  
     2     1    11 ar  
     3     1    12 1   
     4     2     3 1   
     5     2    13 1   
     6     2    14 1   
     7     2    15 1   
     8     3     9 1   
     9     3    16 1   
    10     3    17 1   
    11     4     5 ar  
    12     4     9 1   
    13     4    11 ar  
    14     5     6 ar  
    15     5    18 1   
    16     6     7 ar  
    17     6    19 1   
    18     7     8 1   
    19     8    10 3   
    20     9    20 1   
@<TRIPOS>SUBSTRUCTURE
     1 RZS         1 TEMP              0 ****  ****    0 ROOT
