@<TRIPOS>MOLECULE
RZS
   20    20     1     0     0
SMALL
bcc


@<TRIPOS>ATOM
      1 C10          1.2830     1.1700     0.0260 ca         1 RZS       0.507200
      2 C01         -4.5060    -0.0430    -0.0130 c3         1 RZS      -0.112100
      3 C02         -3.1140    -0.6430     0.0030 c3         1 RZS       0.233800
      4 C04         -0.7930     0.2040     0.0130 ca         1 RZS       0.713200
      5 C05         -0.2300    -1.0940     0.0100 ca         1 RZS      -0.336300
      6 C06          1.1330    -1.2190     0.0140 ca         1 RZS      -0.005000
      7 C07          1.9310    -0.0660     0.0220 ca         1 RZS      -0.226300
      8 C08          3.3460    -0.1390     0.0260 cg         1 RZS       0.252800
      9 N03         -2.1150     0.4030     0.0080 nu         1 RZS      -0.876900
     10 N09          4.4990    -0.1980     0.0300 n1         1 RZS      -0.380800
     11 N11         -0.0240     1.3060     0.0220 nb         1 RZS      -0.767000
     12 H1           1.8650     2.0850     0.0330 h4         1 RZS       0.026100
     13 H2          -4.6780     0.5760     0.8690 hc         1 RZS       0.048033
     14 H3          -4.6600     0.5740    -0.8990 hc         1 RZS       0.048033
     15 H4          -5.2530    -0.8340    -0.0190 hc         1 RZS       0.048033
     16 H5          -2.9960    -1.2810     0.8840 h1         1 RZS       0.043700
     17 H6          -2.9790    -1.2860    -0.8730 h1         1 RZS       0.043700
     18 H7          -0.8580    -1.9730     0.0030 ha         1 RZS       0.144000
     19 H8           1.5890    -2.2000     0.0110 ha         1 RZS       0.143000
     20 H9          -2.4230     1.3640     0.0160 hn         1 RZS       0.452800
@<TRIPOS>BOND
     1     1     7 ar  
     2     1    11 ar  
     3     1    12 1   
     4     2     3 1   
     5     2    13 1   
     6     2    14 1   
     7     2    15 1   
     8     3     9 1   
     9     3    16 1   
    10     3    17 1   
    11     4     5 ar  
    12     4     9 1   
    13     4    11 ar  
    14     5     6 ar  
    15     5    18 1   
    16     6     7 ar  
    17     6    19 1   
    18     7     8 1   
    19     8    10 3   
    20     9    20 1   
@<TRIPOS>SUBSTRUCTURE
     1 RZS         1 TEMP              0 ****  ****    0 ROOT
