@<TRIPOS>MOLECULE
RZT
   57    60     1     0     0
SMALL
abcg2


@<TRIPOS>ATOM
      1 C11        -16.8190    21.6390    -3.1510 ca         1 RZT      -0.073000
      2 C12        -18.1700    21.3430    -3.0230 ca         1 RZT       0.097000
      3 C14        -18.6320    20.5590    -1.9780 ca         1 RZT      -0.073000
      4 C02        -13.4080    17.0770    -0.8620 c6         1 RZT       0.163500
      5 C03        -13.0480    18.2640     0.0250 c6         1 RZT      -0.071400
      6 C04        -14.1170    18.5210     1.0860 c6         1 RZT      -0.075900
      7 C05        -15.5150    18.7090     0.4710 c6         1 RZT       0.111000
      8 C06        -15.8550    17.5210    -0.4310 c6         1 RZT      -0.075900
      9 C07        -14.7810    17.2910    -1.4920 c6         1 RZT      -0.071400
     10 C09        -16.3750    20.3430    -1.1620 ca         1 RZT       0.122100
     11 C10        -15.9250    21.1330    -2.2200 ca         1 RZT      -0.146000
     12 C15        -17.7340    20.0610    -1.0400 ca         1 RZT      -0.146000
     13 C16        -16.5090    18.8510     1.6420 c          1 RZT       0.580100
     14 C19        -17.4300    20.6170     3.1450 ca         1 RZT      -0.024000
     15 C20        -18.0230    19.7940     4.1020 ca         1 RZT      -0.125000
     16 C21        -18.7760    20.3480     5.1430 ca         1 RZT       0.011000
     17 C22        -18.9270    21.7370     5.2150 ca         1 RZT      -0.123000
     18 C23        -18.3280    22.5520     4.2630 ca         1 RZT      -0.083000
     19 C24        -17.5830    22.0040     3.2300 ca         1 RZT      -0.156000
     20 C25        -19.3900    19.4640     6.1490 cc         1 RZT      -0.060000
     21 C26        -19.6830    19.8350     7.4410 cd         1 RZT      -0.225000
     22 C28        -20.3020    17.4810     6.9990 cd         1 RZT      -0.329900
     23 C29        -19.7540    18.1040     5.9090 cc         1 RZT      -0.083000
     24 C30        -20.7870    16.0920     7.1120 cf         1 RZT       0.694800
     25 N01        -12.3930    16.9120    -1.9110 n8         1 RZT      -1.002200
     26 N18        -16.6470    20.1230     2.0880 ns         1 RZT      -0.140000
     27 N31        -21.0980    15.4940     5.9210 nv         1 RZT      -1.034200
     28 N32        -20.8870    15.4310     8.2130 n2         1 RZT      -0.847100
     29 O08        -15.4130    19.9480    -0.2710 os         1 RZT      -0.372100
     30 O17        -17.0560    17.8720     2.1330 o          1 RZT      -0.583100
     31 S27        -20.3860    18.5650     8.3480 ss         1 RZT       0.230000
     32 CL1        -19.3060    21.9690    -4.2020 cl         1 RZT      -0.209000
     33 H111       -16.4670    22.2500    -3.9700 ha         1 RZT       0.133000
     34 H141       -19.6860    20.3370    -1.8860 ha         1 RZT       0.133000
     35 H021       -13.4750    16.1860    -0.2190 h1         1 RZT       0.015700
     36 H032       -12.0890    18.0840     0.5190 hc         1 RZT       0.055950
     37 H031       -12.9270    19.1490    -0.6040 hc         1 RZT       0.055950
     38 H041       -14.1730    17.6770     1.7780 hc         1 RZT       0.064200
     39 H042       -13.8690    19.4080     1.6730 hc         1 RZT       0.064200
     40 H061       -16.8290    17.6570    -0.8980 hc         1 RZT       0.064200
     41 H062       -15.9390    16.6450     0.2130 hc         1 RZT       0.064200
     42 H071       -14.7290    18.1460    -2.1720 hc         1 RZT       0.055950
     43 H072       -15.0530    16.4200    -2.0940 hc         1 RZT       0.055950
     44 H101       -14.8670    21.3430    -2.3030 ha         1 RZT       0.132000
     45 H151       -18.1160    19.4620    -0.2270 ha         1 RZT       0.132000
     46 H201       -17.8810    18.7290     4.0400 ha         1 RZT       0.148000
     47 H221       -19.5250    22.1780     6.0010 ha         1 RZT       0.116000
     48 H231       -18.4500    23.6260     4.3200 ha         1 RZT       0.116000
     49 H241       -17.1210    22.6400     2.4850 ha         1 RZT       0.116000
     50 H261       -19.5090    20.7890     7.9110 h4         1 RZT       0.153000
     51 H291       -19.6110    17.6060     4.9610 ha         1 RZT       0.148000
     52 H012       -11.4900    16.7250    -1.4850 hn         1 RZT       0.396500
     53 H011       -12.6120    16.0950    -2.4730 hn         1 RZT       0.396500
     54 H181       -16.1560    20.8210     1.5470 hn         1 RZT       0.170000
     55 H312       -21.5400    14.5890     5.9810 hn         1 RZT       0.474500
     56 H321       -20.5240    15.9690     8.9950 hn         1 RZT       0.384400
     57 H311       -21.3950    16.0720     5.1520 hn         1 RZT       0.474500
@<TRIPOS>BOND
     1     1     2 ar  
     2     1    11 ar  
     3     1    33 1   
     4     2     3 ar  
     5     2    32 1   
     6     3    12 ar  
     7     3    34 1   
     8     4     5 1   
     9     4     9 1   
    10     4    25 1   
    11     4    35 1   
    12     5     6 1   
    13     5    36 1   
    14     5    37 1   
    15     6     7 1   
    16     6    38 1   
    17     6    39 1   
    18     7     8 1   
    19     7    13 1   
    20     7    29 1   
    21     8     9 1   
    22     8    40 1   
    23     8    41 1   
    24     9    42 1   
    25     9    43 1   
    26    10    11 ar  
    27    10    12 ar  
    28    10    29 1   
    29    11    44 1   
    30    12    45 1   
    31    13    26 1   
    32    13    30 2   
    33    14    15 ar  
    34    14    19 ar  
    35    14    26 1   
    36    15    16 ar  
    37    15    46 1   
    38    16    17 ar  
    39    16    20 1   
    40    17    18 ar  
    41    17    47 1   
    42    18    19 ar  
    43    18    48 1   
    44    19    49 1   
    45    20    21 2   
    46    20    23 1   
    47    21    31 1   
    48    21    50 1   
    49    22    23 2   
    50    22    24 1   
    51    22    31 1   
    52    23    51 1   
    53    24    27 1   
    54    24    28 2   
    55    25    52 1   
    56    25    53 1   
    57    26    54 1   
    58    27    55 1   
    59    27    57 1   
    60    28    56 1   
@<TRIPOS>SUBSTRUCTURE
     1 RZT         1 TEMP              0 ****  ****    0 ROOT
