@<TRIPOS>MOLECULE
RZT
   57    60     1     0     0
SMALL
No Charge or Current Charge


@<TRIPOS>ATOM
      1 C11        -17.3990    22.2880    -3.3060 ca         1 RZT      -0.073000
      2 C12        -18.3500    21.4020    -3.8370 ca         1 RZT       0.097000
      3 C14        -18.2760    20.0300    -3.5460 ca         1 RZT      -0.073000
      4 C02        -13.9050    16.8770    -0.1910 c6         1 RZT       0.163500
      5 C03        -13.2080    18.2570    -0.1140 c6         1 RZT      -0.071400
      6 C04        -14.0840    19.2870     0.6550 c6         1 RZT      -0.075900
      7 C05        -15.5010    19.4870     0.0160 c6         1 RZT       0.111000
      8 C06        -16.1560    18.0560     0.0200 c6         1 RZT      -0.075900
      9 C07        -15.3270    17.0170    -0.7860 c6         1 RZT      -0.071400
     10 C09        -16.3210    20.4330    -2.1400 ca         1 RZT       0.122100
     11 C10        -16.3790    21.7990    -2.4680 ca         1 RZT      -0.146000
     12 C15        -17.2560    19.5430    -2.7070 ca         1 RZT      -0.146000
     13 C16        -16.2890    20.5060     0.9380 c          1 RZT       0.580100
     14 C19        -17.4650    20.5610     3.2290 ca         1 RZT      -0.024000
     15 C20        -18.0280    19.6900     4.1820 ca         1 RZT      -0.125000
     16 C21        -18.7520    20.1710     5.2990 ca         1 RZT       0.011000
     17 C22        -18.8910    21.5730     5.4380 ca         1 RZT      -0.123000
     18 C23        -18.3250    22.4500     4.5000 ca         1 RZT      -0.083000
     19 C24        -17.6120    21.9510     3.4010 ca         1 RZT      -0.156000
     20 C25        -19.3350    19.2210     6.2760 cc         1 RZT      -0.060000
     21 C26        -20.0200    19.6830     7.3780 cd         1 RZT      -0.225000
     22 C28        -19.9090    17.1680     7.2880 cd         1 RZT      -0.329900
     23 C29        -19.2750    17.7980     6.2410 cc         1 RZT      -0.083000
     24 C30        -20.0000    15.7390     7.5410 cf         1 RZT       0.694800
     25 N01        -13.0990    15.9270    -0.9770 n8         1 RZT      -1.002200
     26 N18        -16.7470    19.9820     2.1460 ns         1 RZT      -0.140000
     27 N31        -19.8560    14.9390     6.5040 nv         1 RZT      -1.034200
     28 N32        -20.1130    15.2600     8.7090 n2         1 RZT      -0.847100
     29 O08        -15.2830    19.9920    -1.3430 os         1 RZT      -0.372100
     30 O17        -16.5500    21.6520     0.5820 o          1 RZT      -0.583100
     31 S27        -20.6000    18.3610     8.4010 ss         1 RZT       0.230000
     32 Cl1        -19.6240    22.0090    -4.8880 cl         1 RZT      -0.209000
     33 H111       -17.4490    23.3470    -3.5440 ha         1 RZT       0.133000
     34 H141       -19.0000    19.3450    -3.9780 ha         1 RZT       0.133000
     35 H021       -13.9870    16.4650     0.8260 h1         1 RZT       0.015700
     36 H032       -12.2360    18.1570     0.3880 hc         1 RZT       0.055950
     37 H031       -12.9970    18.6300    -1.1260 hc         1 RZT       0.055950
     38 H041       -14.1770    18.9650     1.7030 hc         1 RZT       0.064200
     39 H042       -13.5600    20.2520     0.6860 hc         1 RZT       0.064200
     40 H061       -17.1870    18.1020    -0.3510 hc         1 RZT       0.064200
     41 H062       -16.2450    17.6750     1.0470 hc         1 RZT       0.064200
     42 H071       -15.2630    17.3160    -1.8410 hc         1 RZT       0.055950
     43 H072       -15.8380    16.0450    -0.7670 hc         1 RZT       0.055950
     44 H101       -15.6390    22.4820    -2.0600 ha         1 RZT       0.132000
     45 H151       -17.1900    18.4760    -2.5290 ha         1 RZT       0.132000
     46 H201       -17.8970    18.6230     4.0390 ha         1 RZT       0.148000
     47 H221       -19.4340    22.0090     6.2680 ha         1 RZT       0.116000
     48 H231       -18.4370    23.5250     4.6290 ha         1 RZT       0.116000
     49 H241       -17.1730    22.6600     2.7060 ha         1 RZT       0.116000
     50 H261       -20.2310    20.6970     7.6860 h4         1 RZT       0.153000
     51 H291       -18.7610    17.2550     5.4540 ha         1 RZT       0.148000
     52 H012       -12.1990    15.7880    -0.5040 hn         1 RZT       0.396500
     53 H011       -13.5390    15.0010    -0.9260 hn         1 RZT       0.396500
     54 H181       -16.5120    19.0090     2.2910 hn         1 RZT       0.170000
     55 H312       -20.0780    13.9630     6.6460 hn         1 RZT       0.474500
     56 H321       -20.0860    16.0460     9.3680 hn         1 RZT       0.384400
     57 H311       -20.0370    15.3150     5.5830 hn         1 RZT       0.474500
@<TRIPOS>BOND
     1     1     2 ar  
     2     1    11 ar  
     3     1    33 1   
     4     2     3 ar  
     5     2    32 1   
     6     3    12 ar  
     7     3    34 1   
     8     4     5 1   
     9     4     9 1   
    10     4    25 1   
    11     4    35 1   
    12     5     6 1   
    13     5    36 1   
    14     5    37 1   
    15     6     7 1   
    16     6    38 1   
    17     6    39 1   
    18     7     8 1   
    19     7    13 1   
    20     7    29 1   
    21     8     9 1   
    22     8    40 1   
    23     8    41 1   
    24     9    42 1   
    25     9    43 1   
    26    10    11 ar  
    27    10    12 ar  
    28    10    29 1   
    29    11    44 1   
    30    12    45 1   
    31    13    26 1   
    32    13    30 2   
    33    14    15 ar  
    34    14    19 ar  
    35    14    26 1   
    36    15    16 ar  
    37    15    46 1   
    38    16    17 ar  
    39    16    20 1   
    40    17    18 ar  
    41    17    47 1   
    42    18    19 ar  
    43    18    48 1   
    44    19    49 1   
    45    20    21 2   
    46    20    23 1   
    47    21    31 1   
    48    21    50 1   
    49    22    23 2   
    50    22    24 1   
    51    22    31 1   
    52    23    51 1   
    53    24    27 1   
    54    24    28 2   
    55    25    52 1   
    56    25    53 1   
    57    26    54 1   
    58    27    55 1   
    59    27    57 1   
    60    28    56 1   
@<TRIPOS>SUBSTRUCTURE
     1 RZT         1 TEMP              0 ****  ****    0 ROOT
