@<TRIPOS>MOLECULE
RZU
   57    62     1     0     0
SMALL
abcg2


@<TRIPOS>ATOM
      1 N1         -21.8790     6.9470    30.1840 n          1 RZU      -0.392800
      2 N3         -16.8070     4.0080    25.8800 nb         1 RZU      -0.657000
      3 C4         -22.7740     9.1770    29.4080 cx         1 RZU      -0.096400
      4 C5         -22.3850     6.2340    29.0120 c6         1 RZU       0.123000
      5 C6         -21.8270     4.8040    28.9020 c5         1 RZU      -0.106700
      6 C7         -22.3570     4.1620    27.6090 c5         1 RZU      -0.084400
      7 C8         -21.3500     4.5830    26.5320 c5         1 RZU       0.105000
      8 C10        -18.8480     4.9830    26.6900 ca         1 RZU      -0.091000
      9 C13        -17.1280     6.3940    25.7440 ca         1 RZU      -0.098000
     10 C15        -17.3860     8.7890    25.5900 ca         1 RZU      -0.108000
     11 C17        -19.1780     7.4620    26.5390 ca         1 RZU      -0.107000
     12 C20        -22.3250     2.7230    30.2860 ca         1 RZU      -0.105000
     13 C21        -22.5340     2.1320    31.5240 ca         1 RZU       0.142000
     14 C22        -22.5110     2.8700    32.7000 ca         1 RZU      -0.105000
     15 C24        -22.0570     4.8480    31.3870 ca         1 RZU      -0.127600
     16 C25        -21.7510     6.3100    31.3820 c          1 RZU       0.579600
     17 C2         -21.6990     8.3740    30.1120 cx         1 RZU      -0.057600
     18 C3         -22.6560     9.2500    30.8900 cx         1 RZU      -0.096400
     19 C1         -20.2900     8.8990    29.9710 c          1 RZU       0.623100
     20 O          -20.0770    10.1150    29.9240 o          1 RZU      -0.631100
     21 N          -19.3110     7.9900    29.8990 ns         1 RZU      -0.488900
     22 C          -17.9200     8.3690    29.7400 c3         1 RZU       0.096300
     23 C23        -22.2620     4.2290    32.6190 ca         1 RZU      -0.045000
     24 CL         -22.8320     0.4120    31.6000 cl         1 RZU      -0.199000
     25 C19        -22.1000     4.0930    30.2060 ca         1 RZU      -0.027300
     26 C9         -20.3110     4.8920    28.6310 c          1 RZU       0.573000
     27 O1         -19.4380     5.0810    29.4710 o          1 RZU      -0.532000
     28 N2         -20.1160     4.7800    27.3010 n          1 RZU      -0.242400
     29 C18        -18.4180     6.2880    26.3360 ca         1 RZU      -0.007000
     30 C16        -18.6680     8.6820    26.1720 ca         1 RZU      -0.078000
     31 C14        -16.6290     7.6660    25.3780 ca         1 RZU      -0.080000
     32 C12        -16.3840     5.2070    25.5470 ca         1 RZU       0.370900
     33 C11        -18.0340     3.9080    26.4500 ca         1 RZU       0.344900
     34 H1         -22.4260    10.0140    28.8210 hc         1 RZU       0.087700
     35 H2         -23.6000     8.6210    28.9880 hc         1 RZU       0.087700
     36 H3         -22.1190     6.8140    28.1320 h1         1 RZU       0.055200
     37 H4         -23.4760     6.1650    29.0470 h1         1 RZU       0.055200
     38 H5         -23.3700     4.4860    27.3780 hc         1 RZU       0.068200
     39 H6         -22.3560     3.0780    27.6860 hc         1 RZU       0.068200
     40 H7         -21.6340     5.5120    26.0320 h1         1 RZU       0.057700
     41 H8         -21.1990     3.8140    25.7760 h1         1 RZU       0.057700
     42 H9         -17.0050     9.7640    25.3140 ha         1 RZU       0.122000
     43 H10        -20.1550     7.4000    26.9920 ha         1 RZU       0.116000
     44 H11        -22.3400     2.1050    29.4020 ha         1 RZU       0.130000
     45 H12        -22.6810     2.3900    33.6540 ha         1 RZU       0.139000
     46 H13        -22.2380    10.1420    31.3320 hc         1 RZU       0.087700
     47 H14        -23.3900     8.7250    31.4850 hc         1 RZU       0.087700
     48 H15        -19.5290     7.0030    29.9120 hn         1 RZU       0.346500
     49 H16        -17.3400     7.4650    29.5670 h1         1 RZU       0.041367
     50 H17        -17.7960     9.0370    28.8890 h1         1 RZU       0.041367
     51 H18        -17.5420     8.8710    30.6330 h1         1 RZU       0.041367
     52 H19        -22.2220     4.8280    33.5180 ha         1 RZU       0.147000
     53 H20        -19.2520     9.5780    26.3400 ha         1 RZU       0.126000
     54 H21        -15.6440     7.7330    24.9330 ha         1 RZU       0.121000
     55 H22        -15.3990     5.2780    25.0940 h4         1 RZU       0.024100
     56 H23        -18.3660     2.9130    26.7250 h4         1 RZU       0.029100
     57 O2         -21.3920     6.8940    32.4020 o          1 RZU      -0.529000
@<TRIPOS>BOND
     1     1     4 1   
     2     1    16 1   
     3     1    17 1   
     4     2    32 ar  
     5     2    33 ar  
     6     3    17 1   
     7     3    18 1   
     8     3    34 1   
     9     3    35 1   
    10     4     5 1   
    11     4    36 1   
    12     4    37 1   
    13     5     6 1   
    14     5    25 1   
    15     5    26 1   
    16     6     7 1   
    17     6    38 1   
    18     6    39 1   
    19     7    28 1   
    20     7    40 1   
    21     7    41 1   
    22     8    28 1   
    23     8    29 ar  
    24     8    33 ar  
    25     9    29 ar  
    26     9    31 ar  
    27     9    32 ar  
    28    10    30 ar  
    29    10    31 ar  
    30    10    42 1   
    31    11    29 ar  
    32    11    30 ar  
    33    11    43 1   
    34    12    13 ar  
    35    12    25 ar  
    36    12    44 1   
    37    13    14 ar  
    38    13    24 1   
    39    14    23 ar  
    40    14    45 1   
    41    15    16 1   
    42    15    23 ar  
    43    15    25 ar  
    44    16    57 2   
    45    17    18 1   
    46    17    19 1   
    47    18    46 1   
    48    18    47 1   
    49    19    20 2   
    50    19    21 1   
    51    21    22 1   
    52    21    48 1   
    53    22    49 1   
    54    22    50 1   
    55    22    51 1   
    56    23    52 1   
    57    26    27 2   
    58    26    28 1   
    59    30    53 1   
    60    31    54 1   
    61    32    55 1   
    62    33    56 1   
@<TRIPOS>SUBSTRUCTURE
     1 RZU         1 TEMP              0 ****  ****    0 ROOT
