@<TRIPOS>MOLECULE
RZU
   57    62     1     0     0
SMALL
No Charge or Current Charge


@<TRIPOS>ATOM
      1 N1         -22.0900     7.0210    30.0920 n          1 RZU      -0.392800
      2 N3         -17.5820     3.9750    24.8420 nb         1 RZU      -0.657000
      3 C4         -22.5910     9.2520    28.7730 cx         1 RZU      -0.096400
      4 C5         -22.5500     6.2070    28.9510 c6         1 RZU       0.123000
      5 C6         -21.8010     4.8540    28.9050 c5         1 RZU      -0.106700
      6 C7         -22.3930     3.9310    27.7760 c5         1 RZU      -0.084400
      7 C8         -21.7050     4.4870    26.4950 c5         1 RZU       0.105000
      8 C10        -19.2660     5.1490    26.1680 ca         1 RZU      -0.091000
      9 C13        -17.1940     6.2610    25.5570 ca         1 RZU      -0.098000
     10 C15        -16.7410     8.5530    26.2480 ca         1 RZU      -0.108000
     11 C17        -18.8290     7.4780    26.8900 ca         1 RZU      -0.107000
     12 C20        -21.6590     2.7680    30.4670 ca         1 RZU      -0.105000
     13 C21        -21.7360     2.1720    31.7340 ca         1 RZU       0.142000
     14 C22        -21.9950     2.9510    32.8650 ca         1 RZU      -0.105000
     15 C24        -22.0710     4.9510    31.4600 ca         1 RZU      -0.127600
     16 C25        -22.1290     6.4600    31.3810 c          1 RZU       0.579600
     17 C2         -21.8830     8.4750    29.8780 cx         1 RZU      -0.057600
     18 C3         -23.0470     9.4020    30.1990 cx         1 RZU      -0.096400
     19 C1         -20.4790     8.9980    30.2450 c          1 RZU       0.623100
     20 O          -20.2500    10.1580    30.5690 o          1 RZU      -0.631100
     21 N          -19.4710     8.0640    30.1740 ns         1 RZU      -0.488900
     22 C          -18.0650     8.3320    30.4760 c3         1 RZU       0.096300
     23 C23        -22.1470     4.3360    32.7310 ca         1 RZU      -0.045000
     24 Cl         -21.4890     0.4390    31.9030 cl         1 RZU      -0.199000
     25 C19        -21.8670     4.1610    30.2930 ca         1 RZU      -0.027300
     26 C9         -20.3650     5.0740    28.4210 c          1 RZU       0.573000
     27 O1         -19.3590     5.2650    29.0910 o          1 RZU      -0.532000
     28 N2         -20.4200     5.0030    27.0190 n          1 RZU      -0.242400
     29 C18        -18.4330     6.2930    26.2320 ca         1 RZU      -0.007000
     30 C16        -17.9840     8.6010    26.9000 ca         1 RZU      -0.078000
     31 C14        -16.3470     7.3870    25.5710 ca         1 RZU      -0.080000
     32 C12        -16.8190     5.0900    24.8710 ca         1 RZU       0.370900
     33 C11        -18.7640     4.0080    25.4980 ca         1 RZU       0.344900
     34 H1         -22.0650    10.0910    28.3230 hc         1 RZU       0.087700
     35 H2         -23.2750     8.7450    28.0980 hc         1 RZU       0.087700
     36 H3         -22.3920     6.7410    28.0040 h1         1 RZU       0.055200
     37 H4         -23.6300     6.0330    29.0590 h1         1 RZU       0.055200
     38 H5         -23.4870     3.9680    27.7150 hc         1 RZU       0.068200
     39 H6         -22.1250     2.8770    27.8610 hc         1 RZU       0.068200
     40 H7         -22.2860     5.3050    26.0500 h1         1 RZU       0.057700
     41 H8         -21.5700     3.7100    25.7320 h1         1 RZU       0.057700
     42 H9         -16.0880     9.4240    26.2570 ha         1 RZU       0.122000
     43 H10        -19.7980     7.5500    27.3740 ha         1 RZU       0.116000
     44 H11        -21.4130     2.1180    29.6350 ha         1 RZU       0.130000
     45 H12        -22.0500     2.4850    33.8460 ha         1 RZU       0.139000
     46 H13        -22.8440    10.3450    30.7000 hc         1 RZU       0.087700
     47 H14        -23.9950     8.9450    30.4740 hc         1 RZU       0.087700
     48 H15        -19.7370     7.1230    29.9040 hn         1 RZU       0.346500
     49 H16        -17.4620     7.4560    30.2050 h1         1 RZU       0.041367
     50 H17        -17.7200     9.2000    29.8990 h1         1 RZU       0.041367
     51 H18        -17.9510     8.5350    31.5480 h1         1 RZU       0.041367
     52 H19        -22.3090     4.9370    33.6250 ha         1 RZU       0.147000
     53 H20        -18.2960     9.5110    27.4080 ha         1 RZU       0.126000
     54 H21        -15.3880     7.3610    25.0570 ha         1 RZU       0.121000
     55 H22        -15.8700     5.0370    24.3380 h4         1 RZU       0.024100
     56 H23        -19.3260     3.0750    25.5020 h4         1 RZU       0.029100
     57 O2         -22.1110     7.1640    32.3820 o          1 RZU      -0.529000
@<TRIPOS>BOND
     1     1     4 1   
     2     1    16 1   
     3     1    17 1   
     4     2    32 ar  
     5     2    33 ar  
     6     3    17 1   
     7     3    18 1   
     8     3    34 1   
     9     3    35 1   
    10     4     5 1   
    11     4    36 1   
    12     4    37 1   
    13     5     6 1   
    14     5    25 1   
    15     5    26 1   
    16     6     7 1   
    17     6    38 1   
    18     6    39 1   
    19     7    28 1   
    20     7    40 1   
    21     7    41 1   
    22     8    28 1   
    23     8    29 ar  
    24     8    33 ar  
    25     9    29 ar  
    26     9    31 ar  
    27     9    32 ar  
    28    10    30 ar  
    29    10    31 ar  
    30    10    42 1   
    31    11    29 ar  
    32    11    30 ar  
    33    11    43 1   
    34    12    13 ar  
    35    12    25 ar  
    36    12    44 1   
    37    13    14 ar  
    38    13    24 1   
    39    14    23 ar  
    40    14    45 1   
    41    15    16 1   
    42    15    23 ar  
    43    15    25 ar  
    44    16    57 2   
    45    17    18 1   
    46    17    19 1   
    47    18    46 1   
    48    18    47 1   
    49    19    20 2   
    50    19    21 1   
    51    21    22 1   
    52    21    48 1   
    53    22    49 1   
    54    22    50 1   
    55    22    51 1   
    56    23    52 1   
    57    26    27 2   
    58    26    28 1   
    59    30    53 1   
    60    31    54 1   
    61    32    55 1   
    62    33    56 1   
@<TRIPOS>SUBSTRUCTURE
     1 RZU         1 TEMP              0 ****  ****    0 ROOT
