@<TRIPOS>MOLECULE
RZV
   39    38     1     0     0
SMALL
No Charge or Current Charge


@<TRIPOS>ATOM
      1 C5           0.9110     6.8170     6.2370 c3         1 RZV      -0.242300
      2 C1           0.6590     8.3460     4.1800 c          1 RZV       0.606100
      3 C10          0.9820     4.4550     5.1460 c3         1 RZV      -0.193400
      4 C11          1.4690     3.0080     5.3690 c          1 RZV       0.711000
      5 C14          0.1680     7.0510     9.0660 c3         1 RZV      -0.402400
      6 C15         -0.0690     7.8830    10.3730 c3         1 RZV      -0.154700
      7 C16          1.2560     8.2400    11.1200 c          1 RZV       0.734000
      8 C19         -1.0930     7.1790    11.3080 c3         1 RZV      -0.026400
      9 C20         -1.5090     8.0140    12.5470 c3         1 RZV      -0.188400
     10 C21         -2.5910     7.2710    13.3520 c          1 RZV       0.708000
     11 C3          -0.8520     8.4720     4.4030 c3         1 RZV      -0.173100
     12 C9           1.4350     5.3580     6.3230 c3         1 RZV      -0.044400
     13 N4           1.3770     7.4770     4.9790 ns         1 RZV      -0.427900
     14 O12          0.7520     2.2460     5.9980 o          1 RZV      -0.770000
     15 O13          2.5720     2.6970     4.9470 o          1 RZV      -0.770000
     16 O17          1.9360     7.3330    11.5830 o          1 RZV      -0.767500
     17 O18          1.5550     9.4200    11.2390 o          1 RZV      -0.767500
     18 O2           1.2280     8.9580     3.2860 o          1 RZV      -0.732100
     19 O22         -3.7630     7.4600    13.0630 o          1 RZV      -0.792500
     20 O23         -2.2370     6.4970    14.2280 o          1 RZV      -0.792500
     21 O7           2.7150     7.6630     8.1760 o          1 RZV      -0.827500
     22 O8           0.8900     9.2490     7.5740 o          1 RZV      -0.827500
     23 P6           1.2760     7.8180     7.7900 p5         1 RZV       1.384000
     24 H1          -0.1820     6.7590     6.2220 h1         1 RZV       0.033700
     25 H2           1.4390     4.8740     4.2410 hc         1 RZV       0.004200
     26 H3          -0.1150     4.4950     5.1440 hc         1 RZV       0.004200
     27 H4          -0.7910     6.8650     8.5690 hc         1 RZV       0.027200
     28 H5           0.5960     6.0760     9.3210 hc         1 RZV       0.027200
     29 H6          -0.5280     8.8290    10.0600 hc         1 RZV       0.029700
     30 H7          -1.9960     6.9460    10.7290 hc         1 RZV       0.011200
     31 H8          -0.6820     6.2180    11.6420 hc         1 RZV       0.011200
     32 H9          -0.6030     8.1350    13.1530 hc         1 RZV       0.023700
     33 H10         -1.9070     8.9570    12.1530 hc         1 RZV       0.023700
     34 H11         -1.3290     9.1510     3.6880 hc         1 RZV       0.046367
     35 H12         -1.3050     7.4740     4.3670 hc         1 RZV       0.046367
     36 H13         -1.0440     8.7830     5.4360 hc         1 RZV       0.046367
     37 H14          1.0850     4.9070     7.2600 hc         1 RZV       0.057200
     38 H15          2.5320     5.3650     6.3730 hc         1 RZV       0.057200
     39 H16          2.3600     7.4090     4.7430 hn         1 RZV       0.308500
@<TRIPOS>BOND
     1     1    12 1   
     2     1    13 1   
     3     1    23 1   
     4     1    24 1   
     5     2    11 1   
     6     2    13 1   
     7     2    18 2   
     8     3     4 1   
     9     3    12 1   
    10     3    25 1   
    11     3    26 1   
    12     4    14 1   
    13     4    15 1   
    14     5     6 1   
    15     5    23 1   
    16     5    27 1   
    17     5    28 1   
    18     6     7 1   
    19     6     8 1   
    20     6    29 1   
    21     7    16 1   
    22     7    17 1   
    23     8     9 1   
    24     8    30 1   
    25     8    31 1   
    26     9    10 1   
    27     9    32 1   
    28     9    33 1   
    29    10    19 1   
    30    10    20 1   
    31    11    34 1   
    32    11    35 1   
    33    11    36 1   
    34    12    37 1   
    35    12    38 1   
    36    13    39 1   
    37    21    23 1   
    38    22    23 1   
@<TRIPOS>SUBSTRUCTURE
     1 RZV         1 TEMP              0 ****  ****    0 ROOT
