@<TRIPOS>MOLECULE
RZV
   39    38     1     0     0
SMALL
abcg2


@<TRIPOS>ATOM
      1 C5           0.7720     6.7910     6.2660 c3         1 RZV      -0.242300
      2 C1           0.8530     8.3160     4.2690 c          1 RZV       0.606100
      3 C10          1.0510     4.4740     5.2530 c3         1 RZV      -0.193400
      4 C11          1.6230     3.0450     5.3430 c          1 RZV       0.711000
      5 C14          0.1060     7.0110     9.0860 c3         1 RZV      -0.402400
      6 C15         -0.1390     7.8550    10.3410 c3         1 RZV      -0.154700
      7 C16          1.1860     8.1870    11.0640 c          1 RZV       0.734000
      8 C19         -1.1090     7.1370    11.2850 c3         1 RZV      -0.026400
      9 C20         -1.4880     7.9590    12.5070 c3         1 RZV      -0.188400
     10 C21         -2.5450     7.3530    13.4540 c          1 RZV       0.708000
     11 C3          -0.6550     8.3510     4.2160 c3         1 RZV      -0.173100
     12 C9           1.3410     5.3860     6.4350 c3         1 RZV      -0.044400
     13 N4           1.4120     7.4610     5.1440 ns         1 RZV      -0.427900
     14 O12          2.2600     2.7350     6.3700 o          1 RZV      -0.770000
     15 O13          1.3920     2.3100     4.3590 o          1 RZV      -0.770000
     16 O17          1.8550     7.2130    11.4720 o          1 RZV      -0.767500
     17 O18          1.4810     9.3930    11.2010 o          1 RZV      -0.767500
     18 O2           1.5390     9.0120     3.5270 o          1 RZV      -0.732100
     19 O22         -2.9950     8.1270    14.3270 o          1 RZV      -0.792500
     20 O23         -2.8550     6.1540    13.2990 o          1 RZV      -0.792500
     21 O7           2.4800     7.9880     8.0280 o          1 RZV      -0.827500
     22 O8           0.2340     9.1900     7.4370 o          1 RZV      -0.827500
     23 P6           0.9910     7.9080     7.7460 p5         1 RZV       1.384000
     24 H1          -0.2970     6.7100     6.0570 h1         1 RZV       0.033700
     25 H2           1.4220     4.9290     4.3290 hc         1 RZV       0.004200
     26 H3          -0.0340     4.3990     5.1120 hc         1 RZV       0.004200
     27 H4          -0.8570     6.6800     8.6790 hc         1 RZV       0.027200
     28 H5           0.6520     6.1040     9.3600 hc         1 RZV       0.027200
     29 H6          -0.6100     8.7950    10.0340 hc         1 RZV       0.029700
     30 H7          -2.0150     6.8830    10.7250 hc         1 RZV       0.011200
     31 H8          -0.6700     6.1830    11.5920 hc         1 RZV       0.011200
     32 H9          -0.5950     8.1620    13.1100 hc         1 RZV       0.023700
     33 H10         -1.8390     8.9470    12.1890 hc         1 RZV       0.023700
     34 H11         -0.9770     9.0010     3.4060 hc         1 RZV       0.046367
     35 H12         -1.0740     7.3560     4.0550 hc         1 RZV       0.046367
     36 H13         -1.0570     8.7290     5.1550 hc         1 RZV       0.046367
     37 H14          0.9220     4.9470     7.3430 hc         1 RZV       0.057200
     38 H15          2.4190     5.4560     6.6080 hc         1 RZV       0.057200
     39 H16          2.4200     7.5200     5.2060 hn         1 RZV       0.308500
@<TRIPOS>BOND
     1     1    12 1   
     2     1    13 1   
     3     1    23 1   
     4     1    24 1   
     5     2    11 1   
     6     2    13 1   
     7     2    18 2   
     8     3     4 1   
     9     3    12 1   
    10     3    25 1   
    11     3    26 1   
    12     4    14 1   
    13     4    15 1   
    14     5     6 1   
    15     5    23 1   
    16     5    27 1   
    17     5    28 1   
    18     6     7 1   
    19     6     8 1   
    20     6    29 1   
    21     7    16 1   
    22     7    17 1   
    23     8     9 1   
    24     8    30 1   
    25     8    31 1   
    26     9    10 1   
    27     9    32 1   
    28     9    33 1   
    29    10    19 1   
    30    10    20 1   
    31    11    34 1   
    32    11    35 1   
    33    11    36 1   
    34    12    37 1   
    35    12    38 1   
    36    13    39 1   
    37    21    23 1   
    38    22    23 1   
@<TRIPOS>SUBSTRUCTURE
     1 RZV         1 TEMP              0 ****  ****    0 ROOT
