@<TRIPOS>MOLECULE
RZW
   36    37     1     0     0
SMALL
No Charge or Current Charge


@<TRIPOS>ATOM
      1 C1           0.2150    -0.8290     0.0880 ca         1 RZW      -0.060800
      2 C2           0.7750     0.4760    -0.0630 ca         1 RZW       0.042600
      3 C3          -0.0960     1.6100     0.0320 ca         1 RZW       0.138100
      4 C4          -1.4930     1.4360     0.0400 ca         1 RZW      -0.246000
      5 C5          -2.0520     0.1510     0.0100 ca         1 RZW       0.129100
      6 C6          -1.2050    -0.9790     0.0410 ca         1 RZW       0.070100
      7 N7           2.2300     0.6250    -0.0560 n          1 RZW      -0.277000
      8 C8           3.1090    -0.4320     0.2520 c          1 RZW       0.555200
      9 C9           2.4870    -1.7400     0.4100 cc         1 RZW      -0.294200
     10 C10          1.1380    -1.9840     0.3040 cd         1 RZW       0.020600
     11 C11          0.6910    -3.4230     0.4760 c3         1 RZW      -0.052900
     12 O12          4.3210    -0.2870     0.3490 o          1 RZW      -0.560000
     13 C13          2.8600     1.8550    -0.6100 c3         1 RZW       0.094300
     14 O14          0.4310     2.8880     0.1390 os         1 RZW      -0.339100
     15 C15         -0.3710     4.0770     0.2610 c3         1 RZW       0.149900
     16 O16         -3.4260    -0.0370     0.0290 os         1 RZW      -0.326100
     17 C17         -4.3670     1.0510     0.0070 c3         1 RZW       0.146900
     18 O18         -1.7850    -2.2310     0.0680 os         1 RZW      -0.343100
     19 C19         -2.4810    -2.7270    -1.0900 c3         1 RZW       0.146900
     20 H4          -2.1470     2.2980     0.0790 ha         1 RZW       0.125000
     21 H9           3.1940    -2.5370     0.6070 ha         1 RZW       0.206000
     22 H11          1.5330    -4.0960     0.6750 hc         1 RZW       0.052367
     23 H11A         0.0020    -3.5280     1.3210 hc         1 RZW       0.052367
     24 H11B         0.2010    -3.7980    -0.4300 hc         1 RZW       0.052367
     25 H13          2.9960     2.5960     0.1880 h1         1 RZW       0.051700
     26 H13A         3.8370     1.6350    -1.0570 h1         1 RZW       0.051700
     27 H13B         2.2330     2.2760    -1.4050 h1         1 RZW       0.051700
     28 H15          0.2740     4.9620     0.3380 h1         1 RZW       0.043033
     29 H15A        -1.0170     4.2060    -0.6170 h1         1 RZW       0.043033
     30 H15B        -0.9970     4.0360     1.1610 h1         1 RZW       0.043033
     31 H17         -4.2470     1.6910     0.8900 h1         1 RZW       0.040700
     32 H17A        -4.2360     1.6620    -0.8950 h1         1 RZW       0.040700
     33 H17B        -5.3940     0.6630     0.0070 h1         1 RZW       0.040700
     34 H19         -3.3490    -2.1050    -1.3390 h1         1 RZW       0.036700
     35 H19A        -1.8120    -2.7490    -1.9600 h1         1 RZW       0.036700
     36 H19B        -2.8380    -3.7490    -0.9090 h1         1 RZW       0.036700
@<TRIPOS>BOND
     1     1     2 ar  
     2     1     6 ar  
     3     1    10 1   
     4     2     3 ar  
     5     2     7 1   
     6     3     4 ar  
     7     3    14 1   
     8     4     5 ar  
     9     4    20 1   
    10     5     6 ar  
    11     5    16 1   
    12     6    18 1   
    13     7     8 1   
    14     7    13 1   
    15     8     9 1   
    16     8    12 2   
    17     9    10 2   
    18     9    21 1   
    19    10    11 1   
    20    11    22 1   
    21    11    23 1   
    22    11    24 1   
    23    13    25 1   
    24    13    26 1   
    25    13    27 1   
    26    14    15 1   
    27    15    28 1   
    28    15    29 1   
    29    15    30 1   
    30    16    17 1   
    31    17    31 1   
    32    17    32 1   
    33    17    33 1   
    34    18    19 1   
    35    19    34 1   
    36    19    35 1   
    37    19    36 1   
@<TRIPOS>SUBSTRUCTURE
     1 RZW         1 TEMP              0 ****  ****    0 ROOT
