@<TRIPOS>MOLECULE
RZW
   36    37     1     0     0
SMALL
abcg2


@<TRIPOS>ATOM
      1 C1           0.1460    -0.8160     0.1230 ca         1 RZW      -0.060800
      2 C2           0.7250     0.4720     0.0380 ca         1 RZW       0.042600
      3 C3          -0.1200     1.5980     0.1380 ca         1 RZW       0.138100
      4 C4          -1.4960     1.4440     0.1210 ca         1 RZW      -0.246000
      5 C5          -2.0700     0.1780     0.0700 ca         1 RZW       0.129100
      6 C6          -1.2560    -0.9470     0.0980 ca         1 RZW       0.070100
      7 N7           2.1070     0.6210    -0.0900 n          1 RZW      -0.277000
      8 C8           2.9710    -0.4070     0.1860 c          1 RZW       0.555200
      9 C9           2.3680    -1.6980     0.4190 cc         1 RZW      -0.294200
     10 C10          1.0450    -1.9440     0.3310 cd         1 RZW       0.020600
     11 C11          0.5930    -3.3620     0.5310 c3         1 RZW      -0.052900
     12 O12          4.1890    -0.2440     0.1750 o          1 RZW      -0.560000
     13 C13          2.7040     1.7960    -0.7270 c3         1 RZW       0.094300
     14 O14          0.4630     2.7990     0.3020 os         1 RZW      -0.339100
     15 C15         -0.3360     3.9640     0.3000 c3         1 RZW       0.149900
     16 O16         -3.3970    -0.0420     0.0360 os         1 RZW      -0.326100
     17 C17         -4.2710     1.0680     0.0280 c3         1 RZW       0.146900
     18 O18         -1.8530    -2.1670     0.1170 os         1 RZW      -0.343100
     19 C19         -2.2110    -2.6640    -1.1670 c3         1 RZW       0.146900
     20 H4          -2.1300     2.3170     0.1740 ha         1 RZW       0.125000
     21 H9           3.0600    -2.5060     0.6200 ha         1 RZW       0.206000
     22 H11          1.4580    -3.9860     0.7490 hc         1 RZW       0.052367
     23 H11A        -0.1080    -3.4590     1.3570 hc         1 RZW       0.052367
     24 H11B         0.1110    -3.7710    -0.3560 hc         1 RZW       0.052367
     25 H13          2.9720     2.5700    -0.0130 h1         1 RZW       0.051700
     26 H13A         3.6060     1.4770    -1.2410 h1         1 RZW       0.051700
     27 H13B         2.0230     2.2050    -1.4650 h1         1 RZW       0.051700
     28 H15          0.3490     4.8030     0.3860 h1         1 RZW       0.043033
     29 H15A        -0.9060     4.0670    -0.6270 h1         1 RZW       0.043033
     30 H15B        -1.0260     3.9870     1.1480 h1         1 RZW       0.043033
     31 H17         -4.1920     1.6590     0.9440 h1         1 RZW       0.040700
     32 H17A        -4.0980     1.7220    -0.8300 h1         1 RZW       0.040700
     33 H17B        -5.2780     0.6640    -0.0370 h1         1 RZW       0.040700
     34 H19         -3.0160    -2.0790    -1.6170 h1         1 RZW       0.036700
     35 H19A        -1.3560    -2.6660    -1.8480 h1         1 RZW       0.036700
     36 H19B        -2.5540    -3.6880    -1.0300 h1         1 RZW       0.036700
@<TRIPOS>BOND
     1     1     2 ar  
     2     1     6 ar  
     3     1    10 1   
     4     2     3 ar  
     5     2     7 1   
     6     3     4 ar  
     7     3    14 1   
     8     4     5 ar  
     9     4    20 1   
    10     5     6 ar  
    11     5    16 1   
    12     6    18 1   
    13     7     8 1   
    14     7    13 1   
    15     8     9 1   
    16     8    12 2   
    17     9    10 2   
    18     9    21 1   
    19    10    11 1   
    20    11    22 1   
    21    11    23 1   
    22    11    24 1   
    23    13    25 1   
    24    13    26 1   
    25    13    27 1   
    26    14    15 1   
    27    15    28 1   
    28    15    29 1   
    29    15    30 1   
    30    16    17 1   
    31    17    31 1   
    32    17    32 1   
    33    17    33 1   
    34    18    19 1   
    35    19    34 1   
    36    19    35 1   
    37    19    36 1   
@<TRIPOS>SUBSTRUCTURE
     1 RZW         1 TEMP              0 ****  ****    0 ROOT
