@<TRIPOS>MOLECULE
RZX
   46    48     1     0     0
SMALL
No Charge or Current Charge


@<TRIPOS>ATOM
      1 C1           6.0470     1.8660     0.9910 ca         1 RZX      -0.036000
      2 C2           5.2130     0.9280     0.3640 ca         1 RZX       0.050400
      3 C3           5.7340    -0.2100    -0.1820 ca         1 RZX      -0.069200
      4 C4           7.1000    -0.5130    -0.1540 ca         1 RZX      -0.122000
      5 C5           7.9600     0.4140     0.4710 ca         1 RZX      -0.083000
      6 C6           7.4350     1.5990     1.0420 ca         1 RZX      -0.141000
      7 N7           4.6910    -0.9080    -0.7080 na         1 RZX      -0.287600
      8 C8           3.5400    -0.1580    -0.4620 cc         1 RZX       0.352100
      9 N9           3.8320     0.9830     0.2010 nd         1 RZX      -0.501100
     10 S10          1.9260    -0.8140    -1.0300 sx         1 RZX       0.292100
     11 C11          1.0650    -0.6670     0.6060 c3         1 RZX      -0.077400
     12 C12         -0.3830    -1.1140     0.5040 ca         1 RZX       0.370300
     13 N13         -0.5540    -2.4540     0.5650 nb         1 RZX      -0.712000
     14 C14         -1.8060    -2.9460     0.4920 ca         1 RZX       0.368900
     15 C15         -2.9330    -2.1310     0.3630 ca         1 RZX      -0.257000
     16 C16         -2.7680    -0.7360     0.3050 ca         1 RZX       0.179100
     17 C17         -1.4620    -0.2040     0.3730 ca         1 RZX      -0.118300
     18 O18          1.3590     0.2440    -1.9660 o          1 RZX      -0.460000
     19 O19         -3.8460     0.1210     0.1890 os         1 RZX      -0.335100
     20 C20         -5.2010    -0.3500     0.1150 c3         1 RZX       0.165600
     21 C21         -6.1140     0.8820    -0.0080 c3         1 RZX      -0.087400
     22 C22         -7.6030     0.5060    -0.0950 c3         1 RZX       0.161600
     23 O23         -8.3540     1.7250    -0.2060 os         1 RZX      -0.450000
     24 C24         -9.7770     1.5410    -0.2970 c3         1 RZX       0.146900
     25 C25         -1.2240     1.3110     0.3220 c3         1 RZX      -0.033800
     26 H1           5.6350     2.7720     1.4270 ha         1 RZX       0.132000
     27 H4           7.4870    -1.4290    -0.5980 ha         1 RZX       0.118000
     28 H5           9.0290     0.2180     0.5150 ha         1 RZX       0.113000
     29 H6           8.1030     2.3100     1.5220 ha         1 RZX       0.115000
     30 HN7          4.7340    -1.7980    -1.1880 hn         1 RZX       0.360000
     31 H11          1.6030    -1.3080     1.3130 h1         1 RZX       0.099200
     32 H11A         1.1480     0.3710     0.9440 h1         1 RZX       0.099200
     33 H14         -1.9060    -4.0300     0.5430 h4         1 RZX       0.016100
     34 H15         -3.9100    -2.6010     0.3150 ha         1 RZX       0.127000
     35 H20         -5.3400    -0.9990    -0.7600 h1         1 RZX       0.036700
     36 H20A        -5.4660    -0.9140     1.0200 h1         1 RZX       0.036700
     37 H21         -5.9570     1.5340     0.8600 hc         1 RZX       0.071200
     38 H21A        -5.8320     1.4500    -0.9020 hc         1 RZX       0.071200
     39 H22         -7.7700    -0.1340    -0.9710 h1         1 RZX       0.019700
     40 H22A        -7.8960    -0.0500     0.8050 h1         1 RZX       0.019700
     41 H24        -10.0370     0.9450    -1.1820 h1         1 RZX       0.029700
     42 H24A       -10.1620     1.0280     0.5940 h1         1 RZX       0.029700
     43 H24B       -10.2830     2.5110    -0.3790 h1         1 RZX       0.029700
     44 H25         -2.1130     1.8720     0.0120 hc         1 RZX       0.053033
     45 H25A        -0.9280     1.6920     1.3070 hc         1 RZX       0.053033
     46 H25B        -0.4320     1.5690    -0.3890 hc         1 RZX       0.053033
@<TRIPOS>BOND
     1     1     2 ar  
     2     1     6 ar  
     3     1    26 1   
     4     2     3 ar  
     5     2     9 1   
     6     3     4 ar  
     7     3     7 1   
     8     4     5 ar  
     9     4    27 1   
    10     5     6 ar  
    11     5    28 1   
    12     6    29 1   
    13     7     8 1   
    14     7    30 1   
    15     8     9 2   
    16     8    10 1   
    17    10    11 1   
    18    10    18 2   
    19    11    12 1   
    20    11    31 1   
    21    11    32 1   
    22    12    13 ar  
    23    12    17 ar  
    24    13    14 ar  
    25    14    15 ar  
    26    14    33 1   
    27    15    16 ar  
    28    15    34 1   
    29    16    17 ar  
    30    16    19 1   
    31    17    25 1   
    32    19    20 1   
    33    20    21 1   
    34    20    35 1   
    35    20    36 1   
    36    21    22 1   
    37    21    37 1   
    38    21    38 1   
    39    22    23 1   
    40    22    39 1   
    41    22    40 1   
    42    23    24 1   
    43    24    41 1   
    44    24    42 1   
    45    24    43 1   
    46    25    44 1   
    47    25    45 1   
    48    25    46 1   
@<TRIPOS>SUBSTRUCTURE
     1 RZX         1 TEMP              0 ****  ****    0 ROOT
