@<TRIPOS>MOLECULE
RZX
   46    48     1     0     0
SMALL
bcc


@<TRIPOS>ATOM
      1 C1           5.8900     2.1390     0.1940 ca         1 RZX      -0.054000
      2 C2           5.0300     1.0700    -0.0610 ca         1 RZX       0.050400
      3 C3           5.4760    -0.2500     0.1190 ca         1 RZX      -0.069200
      4 C4           6.7630    -0.5540     0.5500 ca         1 RZX      -0.140000
      5 C5           7.5990     0.5180     0.7970 ca         1 RZX      -0.101000
      6 C6           7.1700     1.8450     0.6230 ca         1 RZX      -0.159000
      7 N7           4.4020    -1.0310    -0.2200 na         1 RZX      -0.237300
      8 C8           3.4050    -0.1800    -0.5630 cc         1 RZX       0.352100
      9 N9           3.7230     1.0730    -0.4900 nd         1 RZX      -0.501100
     10 S10          1.8090    -0.7700    -1.1200 sx         1 RZX       0.265300
     11 C11          1.0660    -0.8980     0.5530 c3         1 RZX      -0.077400
     12 C12         -0.3750    -1.2680     0.3810 ca         1 RZX       0.435600
     13 N13         -0.5840    -2.5810     0.2340 nb         1 RZX      -0.712000
     14 C14         -1.8220    -2.9970     0.0530 ca         1 RZX       0.434200
     15 C15         -2.9210    -2.1530     0.0160 ca         1 RZX      -0.340300
     16 C16         -2.6980    -0.7910     0.1710 ca         1 RZX       0.179100
     17 C17         -1.3850    -0.3120     0.3410 ca         1 RZX      -0.183600
     18 O18          1.1490     0.3830    -1.8080 o          1 RZX      -0.433200
     19 O19         -3.6600     0.1330     0.1670 os         1 RZX      -0.311900
     20 C20         -5.0150    -0.2710     0.0210 c3         1 RZX       0.142400
     21 C21         -5.8830     0.9600     0.1800 c3         1 RZX      -0.087400
     22 C22         -7.3460     0.6140    -0.0230 c3         1 RZX       0.138400
     23 O23         -8.1190     1.7670     0.1890 os         1 RZX      -0.403600
     24 C24         -9.4910     1.5380    -0.0020 c3         1 RZX       0.123700
     25 C25         -1.1690     1.1660     0.4700 c3         1 RZX      -0.033800
     26 H1           5.5600     3.1610     0.0600 ha         1 RZX       0.150000
     27 H4           7.0940    -1.5750     0.6860 ha         1 RZX       0.136000
     28 H5           8.6100     0.3320     1.1340 ha         1 RZX       0.131000
     29 H6           7.8610     2.6520     0.8290 ha         1 RZX       0.133000
     30 HN7          4.3730    -2.0390    -0.2410 hn         1 RZX       0.309700
     31 H11          1.6050    -1.6950     1.0670 h1         1 RZX       0.099200
     32 H11A         1.2320     0.0440     1.0720 h1         1 RZX       0.099200
     33 H14         -1.9660    -4.0650    -0.0660 h4         1 RZX       0.016100
     34 H15         -3.9070    -2.5700    -0.1340 ha         1 RZX       0.145000
     35 H20         -5.1650    -0.7290    -0.9620 h1         1 RZX       0.036700
     36 H20A        -5.2700    -1.0180     0.7810 h1         1 RZX       0.036700
     37 H21         -5.7410     1.3790     1.1790 hc         1 RZX       0.071200
     38 H21A        -5.5820     1.7200    -0.5470 hc         1 RZX       0.071200
     39 H22         -7.5040     0.2230    -1.0390 h1         1 RZX       0.019700
     40 H22A        -7.6460    -0.1870     0.6700 h1         1 RZX       0.019700
     41 H24         -9.7140     1.2100    -1.0240 h1         1 RZX       0.029700
     42 H24A        -9.8810     0.7770     0.6860 h1         1 RZX       0.029700
     43 H24B       -10.0200     2.4720     0.1840 h1         1 RZX       0.029700
     44 H25         -1.5060     1.6850    -0.4280 hc         1 RZX       0.053033
     45 H25A        -1.7360     1.5710     1.3080 hc         1 RZX       0.053033
     46 H25B        -0.1260     1.4290     0.6150 hc         1 RZX       0.053033
@<TRIPOS>BOND
     1     1     2 ar  
     2     1     6 ar  
     3     1    26 1   
     4     2     3 ar  
     5     2     9 1   
     6     3     4 ar  
     7     3     7 1   
     8     4     5 ar  
     9     4    27 1   
    10     5     6 ar  
    11     5    28 1   
    12     6    29 1   
    13     7     8 1   
    14     7    30 1   
    15     8     9 2   
    16     8    10 1   
    17    10    11 1   
    18    10    18 2   
    19    11    12 1   
    20    11    31 1   
    21    11    32 1   
    22    12    13 ar  
    23    12    17 ar  
    24    13    14 ar  
    25    14    15 ar  
    26    14    33 1   
    27    15    16 ar  
    28    15    34 1   
    29    16    17 ar  
    30    16    19 1   
    31    17    25 1   
    32    19    20 1   
    33    20    21 1   
    34    20    35 1   
    35    20    36 1   
    36    21    22 1   
    37    21    37 1   
    38    21    38 1   
    39    22    23 1   
    40    22    39 1   
    41    22    40 1   
    42    23    24 1   
    43    24    41 1   
    44    24    42 1   
    45    24    43 1   
    46    25    44 1   
    47    25    45 1   
    48    25    46 1   
@<TRIPOS>SUBSTRUCTURE
     1 RZX         1 TEMP              0 ****  ****    0 ROOT
