@<TRIPOS>MOLECULE
N00
   33    35     1     0     0
SMALL
abcg2


@<TRIPOS>ATOM
      1 C4          22.0400   -23.0440    14.9720 ca         1 N00      -0.115300
      2 C5          22.0270   -23.0680    13.4660 c3         1 N00      -0.043800
      3 C6          22.6310   -24.1000    15.6720 ca         1 N00       0.005800
      4 C7          22.6890   -24.1560    17.0860 cp         1 N00      -0.120000
      5 C8          22.1280   -23.1150    17.8230 ca         1 N00      -0.066000
      6 C10         23.3660   -25.3860    17.4280 cp         1 N00      -0.060000
      7 C13         24.6890   -27.8410    17.3810 ca         1 N00      -0.092000
      8 C15         23.7150   -25.9890    18.6370 ca         1 N00      -0.052000
      9 CL          24.8200   -27.9980    20.0930 cl         1 N00      -0.253000
     10 C14         24.3690   -27.2080    18.5870 ca         1 N00       0.080000
     11 C12         24.3480   -27.2510    16.1710 ca         1 N00      -0.146000
     12 C11         23.6890   -26.0250    16.2020 ca         1 N00      -0.004200
     13 N           23.2410   -25.2370    15.1650 na         1 N00      -0.242600
     14 C9          21.5260   -22.0690    17.1430 ca         1 N00      -0.127000
     15 C3          21.4670   -22.0160    15.7360 ca         1 N00       0.046700
     16 C1          20.7980   -20.8510    15.0310 c3         1 N00      -0.175400
     17 C           19.7700   -20.0970    15.8820 c3         1 N00      -0.062100
     18 C2          21.8420   -19.8230    14.4920 c          1 N00       0.717000
     19 O1          21.7540   -19.5140    13.2750 o          1 N00      -0.721000
     20 O           22.6680   -19.3580    15.3160 o          1 N00      -0.721000
     21 H1          21.1660   -23.6300    13.0870 hc         1 N00       0.042700
     22 H2          21.9830   -22.0680    13.0430 hc         1 N00       0.042700
     23 H3          22.9240   -23.5530    13.0770 hc         1 N00       0.042700
     24 H4          22.1540   -23.1250    18.9060 ha         1 N00       0.100000
     25 H5          25.2010   -28.7930    17.3960 ha         1 N00       0.114000
     26 H6          23.4810   -25.5240    19.5850 ha         1 N00       0.126000
     27 H7          24.5920   -27.7350    15.2350 ha         1 N00       0.110000
     28 H8          23.3290   -25.4720    14.1900 hn         1 N00       0.348000
     29 H9          21.0850   -21.2660    17.7160 ha         1 N00       0.118000
     30 H10         20.2740   -21.2420    14.1600 hc         1 N00       0.046700
     31 H11         19.0180   -20.7780    16.2880 hc         1 N00       0.020033
     32 H12         20.2410   -19.5720    16.7120 hc         1 N00       0.020033
     33 H13         19.2580   -19.3550    15.2650 hc         1 N00       0.020033
@<TRIPOS>BOND
     1     1     2 1   
     2     1     3 ar  
     3     1    15 ar  
     4     2    21 1   
     5     2    22 1   
     6     2    23 1   
     7     3     4 ar  
     8     3    13 1   
     9     4     5 ar  
    10     4     6 1   
    11     5    14 ar  
    12     5    24 1   
    13     6     8 ar  
    14     6    12 ar  
    15     7    10 ar  
    16     7    11 ar  
    17     7    25 1   
    18     8    10 ar  
    19     8    26 1   
    20     9    10 1   
    21    11    12 ar  
    22    11    27 1   
    23    12    13 1   
    24    13    28 1   
    25    14    15 ar  
    26    14    29 1   
    27    15    16 1   
    28    16    17 1   
    29    16    18 1   
    30    16    30 1   
    31    17    31 1   
    32    17    32 1   
    33    17    33 1   
    34    18    19 1   
    35    18    20 1   
@<TRIPOS>SUBSTRUCTURE
     1 N00         1 TEMP              0 ****  ****    0 ROOT
