@<TRIPOS>MOLECULE
N00
   33    35     1     0     0
SMALL
No Charge or Current Charge


@<TRIPOS>ATOM
      1 C4          22.0260   -23.0590    14.9150 ca         1 N00      -0.115300
      2 C5          21.9400   -23.0930    13.3890 c3         1 N00      -0.043800
      3 C6          22.6210   -24.1230    15.6140 ca         1 N00       0.005800
      4 C7          22.7450   -24.1580    16.9990 cp         1 N00      -0.120000
      5 C8          22.2680   -23.0910    17.7740 ca         1 N00      -0.066000
      6 C10         23.4080   -25.3990    17.3730 cp         1 N00      -0.060000
      7 C13         24.6890   -27.8940    17.4560 ca         1 N00      -0.092000
      8 C15         23.7760   -25.9280    18.6250 ca         1 N00      -0.052000
      9 Cl          24.8960   -27.8810    20.1990 cl         1 N00      -0.253000
     10 C14         24.4200   -27.1850    18.6550 ca         1 N00       0.080000
     11 C12         24.3160   -27.3550    16.2040 ca         1 N00      -0.146000
     12 C11         23.6800   -26.1100    16.2090 ca         1 N00      -0.004200
     13 N           23.1960   -25.3220    15.1550 na         1 N00      -0.242600
     14 C9          21.6600   -22.0050    17.1120 ca         1 N00      -0.127000
     15 C3          21.5200   -21.9720    15.6930 ca         1 N00       0.046700
     16 C1          20.8390   -20.7620    15.0220 c3         1 N00      -0.175400
     17 C           19.6130   -20.2140    15.7980 c3         1 N00      -0.062100
     18 C2          21.8690   -19.6480    14.7340 c          1 N00       0.717000
     19 O1          22.0670   -19.3350    13.5690 o          1 N00      -0.721000
     20 O           22.4580   -19.1360    15.6750 o          1 N00      -0.721000
     21 H1          20.9030   -23.2200    13.0570 hc         1 N00       0.042700
     22 H2          22.3250   -22.1660    12.9490 hc         1 N00       0.042700
     23 H3          22.5240   -23.9130    12.9560 hc         1 N00       0.042700
     24 H4          22.3650   -23.1000    18.8560 ha         1 N00       0.100000
     25 H5          25.1860   -28.8590    17.5010 ha         1 N00       0.114000
     26 H6          23.5700   -25.3850    19.5430 ha         1 N00       0.126000
     27 H7          24.5150   -27.8860    15.2770 ha         1 N00       0.110000
     28 H8          23.2520   -25.5870    14.1790 hn         1 N00       0.348000
     29 H9          21.3040   -21.1760    17.7160 ha         1 N00       0.118000
     30 H10         20.4310   -21.0760    14.0560 hc         1 N00       0.046700
     31 H11         18.9100   -21.0230    16.0300 hc         1 N00       0.020033
     32 H12         19.9060   -19.7270    16.7350 hc         1 N00       0.020033
     33 H13         19.0840   -19.4690    15.1910 hc         1 N00       0.020033
@<TRIPOS>BOND
     1     1     2 1   
     2     1     3 ar  
     3     1    15 ar  
     4     2    21 1   
     5     2    22 1   
     6     2    23 1   
     7     3     4 ar  
     8     3    13 1   
     9     4     5 ar  
    10     4     6 1   
    11     5    14 ar  
    12     5    24 1   
    13     6     8 ar  
    14     6    12 ar  
    15     7    10 ar  
    16     7    11 ar  
    17     7    25 1   
    18     8    10 ar  
    19     8    26 1   
    20     9    10 1   
    21    11    12 ar  
    22    11    27 1   
    23    12    13 1   
    24    13    28 1   
    25    14    15 ar  
    26    14    29 1   
    27    15    16 1   
    28    16    17 1   
    29    16    18 1   
    30    16    30 1   
    31    17    31 1   
    32    17    32 1   
    33    17    33 1   
    34    18    19 1   
    35    18    20 1   
@<TRIPOS>SUBSTRUCTURE
     1 N00         1 TEMP              0 ****  ****    0 ROOT
