@<TRIPOS>MOLECULE
N02
   86    87     1     0     0
SMALL
No Charge or Current Charge


@<TRIPOS>ATOM
      1 C02         -1.1140    -2.1530     1.4860 c          1 N02       0.640100
      2 C04          0.9920    -1.9970     0.0990 c3         1 N02       0.034700
      3 C05          1.6180    -3.3680    -0.2780 c3         1 N02      -0.084400
      4 C06          1.5440    -4.4700     0.8160 c3         1 N02      -0.054700
      5 C07          1.9840    -5.8390     0.2490 c3         1 N02      -0.090100
      6 C08          2.3690    -4.1150     2.0760 c3         1 N02      -0.090100
      7 C09          1.2760    -0.9330    -0.9970 c          1 N02       0.581100
      8 C11          2.9680     0.8100    -1.7170 c3         1 N02       0.100700
      9 C12          2.8680     2.1570    -0.9430 c3         1 N02      -0.072400
     10 C13          1.4320     2.5640    -0.4970 c5         1 N02      -0.149700
     11 C14          1.3790     3.8500     0.3380 c          1 N02       0.561000
     12 C16         -0.6470     3.6980    -0.9040 c5         1 N02       0.099000
     13 C17          0.4390     2.8780    -1.6520 c5         1 N02      -0.093400
     14 C19          4.3730     0.4880    -2.3180 c3         1 N02      -0.094700
     15 C23         -3.4590    -1.9220     2.2720 c6         1 N02       0.228000
     16 N03         -0.4690    -2.1070     0.2850 ns         1 N02      -0.466900
     17 N10          2.4960    -0.3010    -0.8860 ns         1 N02      -0.478900
     18 N15          0.1850     4.4460     0.0350 ns         1 N02      -0.524900
     19 O01         -0.5670    -2.1600     2.5760 o          1 N02      -0.540000
     20 O18          2.2630     4.4090     0.9680 o          1 N02      -0.553000
     21 O21          0.4730    -0.6560    -1.8800 o          1 N02      -0.654100
     22 O22         -2.4500    -2.0410     1.2410 os         1 N02      -0.480100
     23 H1           1.4460    -1.6230     1.0250 h1         1 N02       0.093700
     24 H2           1.1220    -3.7310    -1.1880 hc         1 N02       0.061700
     25 H3           2.6710    -3.2150    -0.5470 hc         1 N02       0.061700
     26 H4           0.4970    -4.5780     1.1240 hc         1 N02       0.037700
     27 H5           3.0290    -5.8080    -0.0820 hc         1 N02       0.033867
     28 H6           1.8870    -6.6230     1.0100 hc         1 N02       0.033867
     29 H7           1.3610    -6.1240    -0.6070 hc         1 N02       0.033867
     30 H8           3.4260    -3.9710     1.8230 hc         1 N02       0.033867
     31 H9           2.0020    -3.1980     2.5500 hc         1 N02       0.033867
     32 H10          2.3020    -4.9180     2.8190 hc         1 N02       0.033867
     33 H11          2.2900     0.8910    -2.5770 h1         1 N02       0.063700
     34 H12          3.5040     2.0990    -0.0520 hc         1 N02       0.075200
     35 H13          3.2880     2.9580    -1.5630 hc         1 N02       0.075200
     36 H14          0.9950     1.7740     0.1230 hc         1 N02       0.092700
     37 H15         -1.2120     4.3490    -1.5840 h1         1 N02       0.031700
     38 H16         -1.3540     3.0440    -0.3760 h1         1 N02       0.031700
     39 H17          0.9130     3.4850    -2.4320 hc         1 N02       0.064700
     40 H18          0.0290     1.9840    -2.1340 hc         1 N02       0.064700
     41 H19          4.3170    -0.5030    -2.7800 h2         1 N02       0.089700
     42 H24         -1.0650    -2.0270    -0.5280 hn         1 N02       0.317500
     43 H25          3.1210    -0.6270    -0.1520 hn         1 N02       0.360500
     44 H26         -0.0210     5.3610     0.4170 hn         1 N02       0.310500
     45 S1           5.7430     0.2890    -1.0540 s6         1 N02       1.284600
     46 O2           6.0910     1.6720    -0.6980 o          1 N02      -0.680533
     47 O3           5.1380    -0.4900     0.0380 o          1 N02      -0.680533
     48 O1           6.8020    -0.4230    -1.7860 o          1 N02      -0.680533
     49 C1          -3.2280    -0.6890     3.1810 c6         1 N02      -0.117900
     50 C2          -3.1440     0.6250     2.3750 c6         1 N02       0.100500
     51 N1          -4.2490     0.8410     1.3960 n          1 N02      -0.390800
     52 C4          -4.8040    -0.3750     0.7200 c6         1 N02       0.100500
     53 C5          -4.8120    -1.6720     1.5660 c6         1 N02      -0.117900
     54 C6          -3.4880    -3.2480     3.1090 c3         1 N02      -0.095400
     55 H22         -4.0550    -0.6080     3.9000 hc         1 N02       0.062200
     56 H23         -2.3260    -0.8050     3.7940 hc         1 N02       0.062200
     57 H30         -3.1150     1.4650     3.0840 h1         1 N02       0.071950
     58 H31         -2.1920     0.6440     1.8250 h1         1 N02       0.071950
     59 C3          -4.4150     2.1240     0.8340 c          1 N02       0.647100
     60 H34         -5.8360    -0.1790     0.3970 h1         1 N02       0.071950
     61 H35         -4.2150    -0.5520    -0.1920 h1         1 N02       0.071950
     62 H36         -5.0680    -2.5160     0.9130 hc         1 N02       0.062200
     63 H37         -5.6140    -1.6100     2.3130 hc         1 N02       0.062200
     64 C7          -3.5990    -4.5690     2.3090 c3         1 N02      -0.081100
     65 O4          -3.8380     3.1130     1.2610 o          1 N02      -0.554000
     66 O5          -5.2820     2.1030    -0.2330 os         1 N02      -0.478100
     67 C8          -5.6140     3.2850    -0.9990 c3         1 N02       0.225000
     68 C9          -4.3340     3.8550    -1.6640 c3         1 N02      -0.107433
     69 C10         -6.5860     2.7700    -2.0840 c3         1 N02      -0.107433
     70 C15         -6.3360     4.3100    -0.0870 c3         1 N02      -0.107433
     71 H21         -2.5940    -3.3110     3.7400 hc         1 N02       0.057200
     72 H32         -4.3290    -3.2100     3.8110 hc         1 N02       0.057200
     73 H33         -3.5800    -5.4260     2.9930 hc         1 N02       0.033367
     74 H38         -4.5360    -4.6140     1.7420 hc         1 N02       0.033367
     75 H39         -2.7620    -4.6790     1.6090 hc         1 N02       0.033367
     76 H40         -3.7470     3.0550    -2.1310 hc         1 N02       0.047144
     77 H41         -4.6000     4.5790    -2.4440 hc         1 N02       0.047144
     78 H42         -3.6980     4.3790    -0.9430 hc         1 N02       0.047144
     79 H43         -7.4760     2.3200    -1.6280 hc         1 N02       0.047144
     80 H44         -6.9140     3.5900    -2.7340 hc         1 N02       0.047144
     81 H45         -6.1030     2.0110    -2.7110 hc         1 N02       0.047144
     82 H46         -5.6460     4.7920     0.6150 hc         1 N02       0.047144
     83 H47         -6.7900     5.1050    -0.6910 hc         1 N02       0.047144
     84 H48         -7.1330     3.8260     0.4890 hc         1 N02       0.047144
     85 O20          4.7080     1.4640    -3.3590 oh         1 N02      -0.641000
     86 H27          5.2500     2.1680    -2.9320 ho         1 N02       0.451000
@<TRIPOS>BOND
     1     1    16 1   
     2     1    19 2   
     3     1    22 1   
     4     2     3 1   
     5     2     7 1   
     6     2    16 1   
     7     2    23 1   
     8     3     4 1   
     9     3    24 1   
    10     3    25 1   
    11     4     5 1   
    12     4     6 1   
    13     4    26 1   
    14     5    27 1   
    15     5    28 1   
    16     5    29 1   
    17     6    30 1   
    18     6    31 1   
    19     6    32 1   
    20     7    17 1   
    21     7    21 2   
    22     8     9 1   
    23     8    14 1   
    24     8    17 1   
    25     8    33 1   
    26     9    10 1   
    27     9    34 1   
    28     9    35 1   
    29    10    11 1   
    30    10    13 1   
    31    10    36 1   
    32    11    18 1   
    33    11    20 2   
    34    12    13 1   
    35    12    18 1   
    36    12    37 1   
    37    12    38 1   
    38    13    39 1   
    39    13    40 1   
    40    14    41 1   
    41    14    45 1   
    42    14    85 1   
    43    15    22 1   
    44    15    49 1   
    45    15    53 1   
    46    15    54 1   
    47    16    42 1   
    48    17    43 1   
    49    18    44 1   
    50    45    46 1   
    51    45    47 1   
    52    45    48 1   
    53    49    50 1   
    54    49    55 1   
    55    49    56 1   
    56    50    51 1   
    57    50    57 1   
    58    50    58 1   
    59    51    52 1   
    60    51    59 1   
    61    52    53 1   
    62    52    60 1   
    63    52    61 1   
    64    53    62 1   
    65    53    63 1   
    66    54    64 1   
    67    54    71 1   
    68    54    72 1   
    69    59    65 2   
    70    59    66 1   
    71    64    73 1   
    72    64    74 1   
    73    64    75 1   
    74    66    67 1   
    75    67    68 1   
    76    67    69 1   
    77    67    70 1   
    78    68    76 1   
    79    68    77 1   
    80    68    78 1   
    81    69    79 1   
    82    69    80 1   
    83    69    81 1   
    84    70    82 1   
    85    70    83 1   
    86    70    84 1   
    87    85    86 1   
@<TRIPOS>SUBSTRUCTURE
     1 N02         1 TEMP              0 ****  ****    0 ROOT
