@<TRIPOS>MOLECULE
N02
   86    87     1     0     0
SMALL
bcc


@<TRIPOS>ATOM
      1 C02         -0.7480    -1.5100     1.1180 c          1 N02       0.756100
      2 C04          1.2320    -2.2990     0.0030 c3         1 N02       0.034700
      3 C05          1.6620    -3.3400    -1.0300 c3         1 N02      -0.084400
      4 C06          1.3010    -4.7880    -0.6920 c3         1 N02      -0.054700
      5 C07          1.8340    -5.7060    -1.7890 c3         1 N02      -0.090100
      6 C08          1.8270    -5.2170     0.6730 c3         1 N02      -0.090100
      7 C09          1.6110    -0.9060    -0.5100 c          1 N02       0.648100
      8 C11          3.4200     0.7680    -0.5300 c3         1 N02       0.100700
      9 C12          3.5260     1.7330     0.6510 c3         1 N02      -0.072400
     10 C13          2.1630     2.1170     1.2050 c5         1 N02      -0.149700
     11 C14          2.2680     3.0420     2.4070 c          1 N02       0.703500
     12 C16          0.3910     3.7480     1.1860 c5         1 N02       0.099000
     13 C17          1.2400     2.8790     0.2540 c5         1 N02      -0.093400
     14 C19          4.7330     0.5130    -1.2880 c3         1 N02      -0.007100
     15 C23         -2.9180    -0.5330     1.6510 c6         1 N02       0.204800
     16 N03         -0.1880    -2.3680     0.2330 ns         1 N02      -0.533900
     17 N10          2.8240    -0.4860    -0.1290 ns         1 N02      -0.545900
     18 N15          1.2740     3.9420     2.3150 ns         1 N02      -0.591900
     19 O01         -0.1070    -0.8590     1.9170 o          1 N02      -0.589000
     20 O18          3.0950     2.9750     3.3020 o          1 N02      -0.628500
     21 O21          0.8560    -0.2800    -1.2400 o          1 N02      -0.654100
     22 O22         -2.0740    -1.5170     1.0050 os         1 N02      -0.456900
     23 H1           1.7530    -2.4950     0.9440 h1         1 N02       0.093700
     24 H2           1.2280    -3.0790    -2.0010 hc         1 N02       0.061700
     25 H3           2.7480    -3.2620    -1.1500 hc         1 N02       0.061700
     26 H4           0.2100    -4.8820    -0.6800 hc         1 N02       0.037700
     27 H5           2.9250    -5.6660    -1.8330 hc         1 N02       0.033867
     28 H6           1.5470    -6.7430    -1.6090 hc         1 N02       0.033867
     29 H7           1.4520    -5.4210    -2.7700 hc         1 N02       0.033867
     30 H8           2.9100    -5.0860     0.7370 hc         1 N02       0.033867
     31 H9           1.3720    -4.6510     1.4870 hc         1 N02       0.033867
     32 H10          1.6120    -6.2710     0.8530 hc         1 N02       0.033867
     33 H11          2.7550     1.2100    -1.2760 h1         1 N02       0.063700
     34 H12          4.1270     1.2900     1.4470 hc         1 N02       0.075200
     35 H13          4.0440     2.6410     0.3290 hc         1 N02       0.075200
     36 H14          1.6480     1.2150     1.5610 hc         1 N02       0.092700
     37 H15          0.1100     4.6990     0.7360 h1         1 N02       0.031700
     38 H16         -0.5280     3.2370     1.4890 h1         1 N02       0.031700
     39 H17          1.8300     3.5170    -0.4100 hc         1 N02       0.064700
     40 H18          0.6330     2.2210    -0.3640 hc         1 N02       0.064700
     41 H19          4.5340    -0.2530    -2.0430 h2         1 N02       0.089700
     42 H24         -0.7670    -2.7000    -0.5230 hn         1 N02       0.317500
     43 H25          3.3860    -1.0670     0.4770 hn         1 N02       0.360500
     44 H26          1.0660     4.5840     3.0640 hn         1 N02       0.310500
     45 S1           6.0940    -0.1480    -0.2510 s6         1 N02       1.173800
     46 O2           6.6610     1.0500     0.4040 o          1 N02      -0.680533
     47 O3           5.4800    -1.1010     0.7010 o          1 N02      -0.680533
     48 O1           7.0290    -0.7900    -1.1880 o          1 N02      -0.680533
     49 C1          -2.5300     0.8810     1.2060 c6         1 N02      -0.117900
     50 C2          -2.6860     1.0850    -0.2970 c6         1 N02       0.100500
     51 N1          -4.0410     0.7680    -0.7120 n          1 N02      -0.457800
     52 C4          -4.4200    -0.6010    -0.4000 c6         1 N02       0.100500
     53 C5          -4.3080    -0.8620     1.0990 c6         1 N02      -0.117900
     54 C6          -2.8810    -0.6570     3.1760 c3         1 N02      -0.095400
     55 H22         -3.1850     1.5850     1.7280 hc         1 N02       0.062200
     56 H23         -1.5110     1.1180     1.5150 hc         1 N02       0.062200
     57 H30         -2.4460     2.1100    -0.5670 h1         1 N02       0.071950
     58 H31         -1.9930     0.4440    -0.8480 h1         1 N02       0.071950
     59 C3          -4.9280     1.7760    -0.9090 c          1 N02       0.763100
     60 H34         -5.4280    -0.8070    -0.7440 h1         1 N02       0.071950
     61 H35         -3.7570    -1.2700    -0.9520 h1         1 N02       0.071950
     62 H36         -4.5660    -1.9040     1.3030 hc         1 N02       0.062200
     63 H37         -5.0420    -0.2460     1.6260 hc         1 N02       0.062200
     64 C7          -3.1010    -2.0600     3.7230 c3         1 N02      -0.081100
     65 O4          -4.6170     2.9520    -0.9440 o          1 N02      -0.603000
     66 O5          -6.1620     1.3140    -1.0880 os         1 N02      -0.454900
     67 C8          -7.3080     2.1790    -1.3020 c3         1 N02       0.201800
     68 C9          -7.1720     2.9590    -2.6030 c3         1 N02      -0.107433
     69 C10         -8.4620     1.1890    -1.4100 c3         1 N02      -0.107433
     70 C15         -7.5310     3.0970    -0.1060 c3         1 N02      -0.107433
     71 H21         -1.9360    -0.2630     3.5510 hc         1 N02       0.057200
     72 H32         -3.6600     0.0080     3.5610 hc         1 N02       0.057200
     73 H33         -3.0750    -2.0420     4.8120 hc         1 N02       0.033367
     74 H38         -4.0670    -2.4750     3.4320 hc         1 N02       0.033367
     75 H39         -2.3270    -2.7550     3.3950 hc         1 N02       0.033367
     76 H40         -6.9810     2.2870    -3.4420 hc         1 N02       0.047144
     77 H41         -8.1080     3.4800    -2.8080 hc         1 N02       0.047144
     78 H42         -6.3790     3.7010    -2.5600 hc         1 N02       0.047144
     79 H43         -8.5590     0.5950    -0.5000 hc         1 N02       0.047144
     80 H44         -9.3990     1.7260    -1.5600 hc         1 N02       0.047144
     81 H45         -8.3250     0.5100    -2.2530 hc         1 N02       0.047144
     82 H46         -6.7690     3.8680    -0.0200 hc         1 N02       0.047144
     83 H47         -8.4970     3.5940    -0.2120 hc         1 N02       0.047144
     84 H48         -7.5590     2.5260     0.8240 hc         1 N02       0.047144
     85 O20          5.1950     1.6500    -1.9490 oh         1 N02      -0.578800
     86 H27          5.6200     2.2310    -1.3050 ho         1 N02       0.412000
@<TRIPOS>BOND
     1     1    16 1   
     2     1    19 2   
     3     1    22 1   
     4     2     3 1   
     5     2     7 1   
     6     2    16 1   
     7     2    23 1   
     8     3     4 1   
     9     3    24 1   
    10     3    25 1   
    11     4     5 1   
    12     4     6 1   
    13     4    26 1   
    14     5    27 1   
    15     5    28 1   
    16     5    29 1   
    17     6    30 1   
    18     6    31 1   
    19     6    32 1   
    20     7    17 1   
    21     7    21 2   
    22     8     9 1   
    23     8    14 1   
    24     8    17 1   
    25     8    33 1   
    26     9    10 1   
    27     9    34 1   
    28     9    35 1   
    29    10    11 1   
    30    10    13 1   
    31    10    36 1   
    32    11    18 1   
    33    11    20 2   
    34    12    13 1   
    35    12    18 1   
    36    12    37 1   
    37    12    38 1   
    38    13    39 1   
    39    13    40 1   
    40    14    41 1   
    41    14    45 1   
    42    14    85 1   
    43    15    22 1   
    44    15    49 1   
    45    15    53 1   
    46    15    54 1   
    47    16    42 1   
    48    17    43 1   
    49    18    44 1   
    50    45    46 1   
    51    45    47 1   
    52    45    48 1   
    53    49    50 1   
    54    49    55 1   
    55    49    56 1   
    56    50    51 1   
    57    50    57 1   
    58    50    58 1   
    59    51    52 1   
    60    51    59 1   
    61    52    53 1   
    62    52    60 1   
    63    52    61 1   
    64    53    62 1   
    65    53    63 1   
    66    54    64 1   
    67    54    71 1   
    68    54    72 1   
    69    59    65 2   
    70    59    66 1   
    71    64    73 1   
    72    64    74 1   
    73    64    75 1   
    74    66    67 1   
    75    67    68 1   
    76    67    69 1   
    77    67    70 1   
    78    68    76 1   
    79    68    77 1   
    80    68    78 1   
    81    69    79 1   
    82    69    80 1   
    83    69    81 1   
    84    70    82 1   
    85    70    83 1   
    86    70    84 1   
    87    85    86 1   
@<TRIPOS>SUBSTRUCTURE
     1 N02         1 TEMP              0 ****  ****    0 ROOT
