@<TRIPOS>MOLECULE
N03
   43    46     1     0     0
SMALL
abcg2


@<TRIPOS>ATOM
      1 C1          18.6010    28.2900    40.9520 ca         1 N03      -0.131000
      2 C10         20.4270    30.9390    37.3170 cc         1 N03      -0.205900
      3 C11         21.4890    31.5720    36.7150 cd         1 N03      -0.043000
      4 C12         20.9820    32.1890    35.5290 cd         1 N03      -0.247600
      5 C13         19.6160    31.8940    35.4650 cc         1 N03      -0.067300
      6 C15         18.5710    32.2550    34.4720 c3         1 N03      -0.033800
      7 C16         21.6760    33.0000    34.5290 c          1 N03       0.613700
      8 C17         23.1480    33.2680    34.6950 c3         1 N03      -0.190100
      9 C19         22.8630    31.5730    37.2540 ca         1 N03      -0.031000
     10 C2          19.4460    28.9980    40.0970 ca         1 N03       0.117400
     11 C20         23.7730    30.5880    36.8720 ca         1 N03      -0.104000
     12 C21         25.0590    30.5770    37.3960 ca         1 N03      -0.115000
     13 C22         25.4480    31.5470    38.3100 ca         1 N03      -0.108000
     14 C23         24.5450    32.5270    38.7010 ca         1 N03      -0.115000
     15 C24         23.2600    32.5390    38.1760 ca         1 N03      -0.104000
     16 C3          20.8170    29.1010    40.3770 ca         1 N03      -0.116200
     17 C4          21.3780    28.5110    41.5010 ca         1 N03      -0.074000
     18 C5          20.5320    27.8090    42.3390 ca         1 N03      -0.146000
     19 C6          19.1480    27.6880    42.0810 ca         1 N03       0.261000
     20 C8          20.3030    30.1590    38.5240 cc         1 N03       0.498400
     21 N14         19.3200    31.1530    36.5410 na         1 N03      -0.067000
     22 N25         18.3630    26.9180    42.9300 nv         1 N03      -1.060000
     23 N7          21.3340    29.8500    39.3480 na         1 N03      -0.291600
     24 N9          19.1560    29.6690    38.9380 nd         1 N03      -0.618100
     25 O18         21.0750    33.4580    33.5700 o          1 N03      -0.556100
     26 H1          17.5410    28.2100    40.7380 ha         1 N03       0.127000
     27 H2          18.8220    31.8830    33.4800 hc         1 N03       0.060033
     28 H3          17.6090    31.8330    34.7600 hc         1 N03       0.060033
     29 H4          18.4570    33.3340    34.3910 hc         1 N03       0.060033
     30 H5          23.5060    33.8970    33.8820 hc         1 N03       0.060033
     31 H6          23.3550    33.7650    35.6440 hc         1 N03       0.060033
     32 H7          23.7190    32.3380    34.6990 hc         1 N03       0.060033
     33 H8          23.4710    29.8280    36.1630 ha         1 N03       0.124000
     34 H9          25.7560    29.8070    37.0910 ha         1 N03       0.118000
     35 H10         26.4500    31.5370    38.7200 ha         1 N03       0.116000
     36 H11         24.8400    33.2830    39.4170 ha         1 N03       0.118000
     37 H12         22.5580    33.3040    38.4830 ha         1 N03       0.124000
     38 H13         22.4340    28.5920    41.7230 ha         1 N03       0.117000
     39 H14         20.9410    27.3350    43.2240 ha         1 N03       0.113000
     40 H15         18.4050    30.7850    36.7610 hn         1 N03       0.374000
     41 H16         18.6980    26.8670    43.8790 hn         1 N03       0.438000
     42 H17         17.3810    27.1460    42.9140 hn         1 N03       0.438000
     43 H18         22.2990    30.1140    39.2280 hn         1 N03       0.369000
@<TRIPOS>BOND
     1     1    10 ar  
     2     1    19 ar  
     3     1    26 1   
     4     2     3 2   
     5     2    20 1   
     6     2    21 1   
     7     3     4 1   
     8     3     9 1   
     9     4     5 2   
    10     4     7 1   
    11     5     6 1   
    12     5    21 1   
    13     6    27 1   
    14     6    28 1   
    15     6    29 1   
    16     7     8 1   
    17     7    25 2   
    18     8    30 1   
    19     8    31 1   
    20     8    32 1   
    21     9    11 ar  
    22     9    15 ar  
    23    10    16 ar  
    24    10    24 1   
    25    11    12 ar  
    26    11    33 1   
    27    12    13 ar  
    28    12    34 1   
    29    13    14 ar  
    30    13    35 1   
    31    14    15 ar  
    32    14    36 1   
    33    15    37 1   
    34    16    17 ar  
    35    16    23 1   
    36    17    18 ar  
    37    17    38 1   
    38    18    19 ar  
    39    18    39 1   
    40    19    22 1   
    41    20    23 1   
    42    20    24 2   
    43    21    40 1   
    44    22    41 1   
    45    22    42 1   
    46    23    43 1   
@<TRIPOS>SUBSTRUCTURE
     1 N03         1 TEMP              0 ****  ****    0 ROOT
