@<TRIPOS>MOLECULE
N03
   43    46     1     0     0
SMALL
No Charge or Current Charge


@<TRIPOS>ATOM
      1 C1          18.6240    28.4280    41.1410 ca         1 N03      -0.131000
      2 C10         20.2930    30.9600    37.2850 cc         1 N03      -0.205900
      3 C11         21.4180    31.4510    36.6620 cd         1 N03      -0.043000
      4 C12         20.9870    32.0830    35.4450 cd         1 N03      -0.247600
      5 C13         19.6200    31.8780    35.3130 cc         1 N03      -0.067300
      6 C15         18.6490    32.3080    34.2410 c3         1 N03      -0.033800
      7 C16         21.7740    32.8980    34.4470 c          1 N03       0.613700
      8 C17         23.2300    33.2820    34.7100 c3         1 N03      -0.190100
      9 C19         22.7660    31.4730    37.2530 ca         1 N03      -0.031000
     10 C2          19.4200    29.0900    40.2000 ca         1 N03       0.117400
     11 C20         23.8320    30.8130    36.6130 ca         1 N03      -0.104000
     12 C21         25.1140    30.8100    37.1880 ca         1 N03      -0.115000
     13 C22         25.3380    31.4640    38.4110 ca         1 N03      -0.108000
     14 C23         24.2780    32.1190    39.0590 ca         1 N03      -0.115000
     15 C24         22.9960    32.1220    38.4830 ca         1 N03      -0.104000
     16 C3          20.7760    29.1340    40.3420 ca         1 N03      -0.116200
     17 C4          21.4500    28.5360    41.4120 ca         1 N03      -0.074000
     18 C5          20.6660    27.8640    42.3730 ca         1 N03      -0.146000
     19 C6          19.2580    27.8090    42.2390 ca         1 N03       0.261000
     20 C8          20.1600    30.2180    38.5140 cc         1 N03       0.498400
     21 N14         19.2080    31.2080    36.4590 na         1 N03      -0.067000
     22 N25         18.5100    27.1520    43.1820 nv         1 N03      -1.060000
     23 N7          21.2550    29.8360    39.2810 na         1 N03      -0.291600
     24 N9          19.0100    29.7610    39.0510 nd         1 N03      -0.618100
     25 O18         21.2660    33.3070    33.4100 o          1 N03      -0.556100
     26 H1          17.5450    28.3940    41.0240 ha         1 N03       0.127000
     27 H2          18.9300    31.8920    33.2670 hc         1 N03       0.060033
     28 H3          17.6300    31.9670    34.4630 hc         1 N03       0.060033
     29 H4          18.6200    33.4000    34.1520 hc         1 N03       0.060033
     30 H5          23.5660    34.0900    34.0520 hc         1 N03       0.060033
     31 H6          23.3760    33.5340    35.7650 hc         1 N03       0.060033
     32 H7          23.8570    32.4020    34.5460 hc         1 N03       0.060033
     33 H8          23.6600    30.2890    35.6750 ha         1 N03       0.124000
     34 H9          25.9330    30.2970    36.6880 ha         1 N03       0.118000
     35 H10         26.3310    31.4610    38.8570 ha         1 N03       0.116000
     36 H11         24.4500    32.6260    40.0060 ha         1 N03       0.118000
     37 H12         22.1810    32.6390    38.9850 ha         1 N03       0.124000
     38 H13         22.5340    28.5850    41.5000 ha         1 N03       0.117000
     39 H14         21.1510    27.3850    43.2190 ha         1 N03       0.113000
     40 H15         18.2520    30.9300    36.6630 hn         1 N03       0.374000
     41 H16         18.9500    26.7970    44.0300 hn         1 N03       0.438000
     42 H17         17.4930    27.1980    43.1570 hn         1 N03       0.438000
     43 H18         22.2190    30.0450    39.0630 hn         1 N03       0.369000
@<TRIPOS>BOND
     1     1    10 ar  
     2     1    19 ar  
     3     1    26 1   
     4     2     3 2   
     5     2    20 1   
     6     2    21 1   
     7     3     4 1   
     8     3     9 1   
     9     4     5 2   
    10     4     7 1   
    11     5     6 1   
    12     5    21 1   
    13     6    27 1   
    14     6    28 1   
    15     6    29 1   
    16     7     8 1   
    17     7    25 2   
    18     8    30 1   
    19     8    31 1   
    20     8    32 1   
    21     9    11 ar  
    22     9    15 ar  
    23    10    16 ar  
    24    10    24 1   
    25    11    12 ar  
    26    11    33 1   
    27    12    13 ar  
    28    12    34 1   
    29    13    14 ar  
    30    13    35 1   
    31    14    15 ar  
    32    14    36 1   
    33    15    37 1   
    34    16    17 ar  
    35    16    23 1   
    36    17    18 ar  
    37    17    38 1   
    38    18    19 ar  
    39    18    39 1   
    40    19    22 1   
    41    20    23 1   
    42    20    24 2   
    43    21    40 1   
    44    22    41 1   
    45    22    42 1   
    46    23    43 1   
@<TRIPOS>SUBSTRUCTURE
     1 N03         1 TEMP              0 ****  ****    0 ROOT
