@<TRIPOS>MOLECULE
N04
   52    54     1     0     0
SMALL
No Charge or Current Charge


@<TRIPOS>ATOM
      1 OE2         -5.4250    -4.3190    -0.3990 o          1 N04      -0.759500
      2 CD          -5.5530    -3.8590     0.7260 c          1 N04       0.713000
      3 OE1         -5.9390    -4.5160     1.6810 o          1 N04      -0.759500
      4 CG          -5.2750    -2.3590     0.9380 c3         1 N04      -0.201400
      5 CB          -6.5700    -1.5380     0.6980 c3         1 N04      -0.055400
      6 C           -7.8190     0.6980     0.8680 c          1 N04       0.719000
      7 OXT         -8.3590     1.0920     1.8930 o          1 N04      -0.741000
      8 O           -8.2640     0.9210    -0.2500 o          1 N04      -0.741000
      9 N           -5.4470     0.6400     0.1070 ns         1 N04      -0.416900
     10 CAU         -4.1330     0.9190     0.4350 c          1 N04       0.594700
     11 OBC         -3.6810     0.6670     1.5460 o          1 N04      -0.636100
     12 CAT         -3.2860     1.5620    -0.6480 ca         1 N04      -0.111600
     13 CAQ         -1.9390     1.8880    -0.3690 ca         1 N04      -0.038000
     14 CAS         -3.7970     1.8500    -1.9380 ca         1 N04      -0.066000
     15 CAR         -2.9780     2.4450    -2.9120 ca         1 N04      -0.136000
     16 CAP         -1.6440     2.7630    -2.6190 ca         1 N04      -0.097000
     17 CAO         -1.1180     2.4870    -1.3450 ca         1 N04      -0.137300
     18 CAN          0.3290     2.8300    -1.0180 c3         1 N04       0.216900
     19 CAA          3.1920     2.7790    -0.5210 ca         1 N04      -0.177000
     20 CAB          4.5770     2.7030    -0.2980 ca         1 N04      -0.083000
     21 CAG          5.2480     1.4760    -0.4370 ca         1 N04      -0.126000
     22 CAC          2.4750     1.6210    -0.8910 ca         1 N04       0.158100
     23 CAE          3.1540     0.3990    -1.0280 ca         1 N04      -0.114000
     24 CAF          4.5400     0.3120    -0.7920 ca         1 N04      -0.067800
     25 CAH          5.2310    -0.9990    -0.9590 ce         1 N04      -0.000200
     26 SBG          6.8550    -0.8550     1.2920 ss         1 N04      -0.177200
     27 CAL          7.9120    -2.3000     1.5890 c          1 N04       0.591600
     28 NAX          7.6720    -3.1800     0.5800 ns         1 N04      -0.482500
     29 CA          -6.4400    -0.0190     0.9910 c3         1 N04      -0.051300
     30 CAK          6.7850    -2.9280    -0.4160 c          1 N04       0.586200
     31 CAI          6.2000    -1.5950    -0.1770 cd         1 N04      -0.147600
     32 OAY          1.1160     1.6330    -1.1300 os         1 N04      -0.328100
     33 HG1C        -4.9860    -2.1650     1.9780 hc         1 N04       0.008700
     34 HG2C        -4.5450    -2.0000     0.2020 hc         1 N04       0.008700
     35 HB1C        -6.9010    -1.6800    -0.3380 hc         1 N04       0.051200
     36 HB2C        -7.3650    -1.9440     1.3370 hc         1 N04       0.051200
     37 HA          -6.1150     0.1030     2.0320 h1         1 N04       0.058700
     38 H           -5.7540     0.9090    -0.8180 hn         1 N04       0.298500
     39 HAQ         -1.5210     1.6740     0.6130 ha         1 N04       0.138000
     40 HAS         -4.8250     1.6180    -2.2050 ha         1 N04       0.135000
     41 HAR         -3.3800     2.6600    -3.8990 ha         1 N04       0.104000
     42 HAP         -1.0200     3.2220    -3.3820 ha         1 N04       0.091000
     43 HAN1         0.6930     3.5970    -1.7150 h1         1 N04       0.035700
     44 HAN2         0.3860     3.2360    -0.0000 h1         1 N04       0.035700
     45 HAA          2.6980     3.7400    -0.4070 ha         1 N04       0.124000
     46 HAB          5.1340     3.5960    -0.0230 ha         1 N04       0.109000
     47 HAE          2.5940    -0.4880    -1.3130 ha         1 N04       0.138000
     48 HAG          6.3240     1.4390    -0.2810 ha         1 N04       0.116000
     49 HAH          4.8810    -1.5940    -1.8060 ha         1 N04       0.205000
     50 HAX          8.1710    -4.0560     0.5730 hn         1 N04       0.344500
     51 OBE          6.5360    -3.6940    -1.3330 o          1 N04      -0.493000
     52 OBH          8.6950    -2.4740     2.5070 o          1 N04      -0.486000
@<TRIPOS>BOND
     1     1     2 1   
     2     2     3 1   
     3     2     4 1   
     4     4     5 1   
     5     4    33 1   
     6     4    34 1   
     7     5    29 1   
     8     5    35 1   
     9     5    36 1   
    10     6     7 1   
    11     6     8 1   
    12     6    29 1   
    13     9    10 1   
    14     9    29 1   
    15     9    38 1   
    16    10    11 2   
    17    10    12 1   
    18    12    13 ar  
    19    12    14 ar  
    20    13    17 ar  
    21    13    39 1   
    22    14    15 ar  
    23    14    40 1   
    24    15    16 ar  
    25    15    41 1   
    26    16    17 ar  
    27    16    42 1   
    28    17    18 1   
    29    18    32 1   
    30    18    43 1   
    31    18    44 1   
    32    19    20 ar  
    33    19    22 ar  
    34    19    45 1   
    35    20    21 ar  
    36    20    46 1   
    37    21    24 ar  
    38    21    48 1   
    39    22    23 ar  
    40    22    32 1   
    41    23    24 ar  
    42    23    47 1   
    43    24    25 1   
    44    25    31 2   
    45    25    49 1   
    46    26    27 1   
    47    26    31 1   
    48    27    28 1   
    49    27    52 2   
    50    28    30 1   
    51    28    50 1   
    52    29    37 1   
    53    30    31 1   
    54    30    51 2   
@<TRIPOS>SUBSTRUCTURE
     1 N04         1 TEMP              0 ****  ****    0 ROOT
