@<TRIPOS>MOLECULE
N04
   52    54     1     0     0
SMALL
abcg2


@<TRIPOS>ATOM
      1 OE2         -9.4170    -2.2490    -0.4930 o          1 N04      -0.759500
      2 CD          -8.3150    -2.8060    -0.6650 c          1 N04       0.713000
      3 OE1         -8.1190    -3.8830    -1.2670 o          1 N04      -0.759500
      4 CG          -7.0610    -2.1140    -0.1020 c3         1 N04      -0.201400
      5 CB          -7.3110    -0.8760     0.7440 c3         1 N04      -0.055400
      6 C           -6.3600     0.8710     2.3210 c          1 N04       0.719000
      7 OXT         -6.9430     0.5260     3.3680 o          1 N04      -0.741000
      8 O           -6.0420     2.0230     1.9820 o          1 N04      -0.741000
      9 N           -5.1360     0.1130     0.2850 ns         1 N04      -0.416900
     10 CAU         -3.8220     0.2760     0.4780 c          1 N04       0.594700
     11 OBC         -3.2620     0.0150     1.5360 o          1 N04      -0.636100
     12 CAT         -3.0320     0.7670    -0.6980 ca         1 N04      -0.111600
     13 CAQ         -1.7850     1.3350    -0.4560 ca         1 N04      -0.038000
     14 CAS         -3.4720     0.6420    -2.0140 ca         1 N04      -0.066000
     15 CAR         -2.6840     1.0940    -3.0620 ca         1 N04      -0.136000
     16 CAP         -1.4490     1.6710    -2.8060 ca         1 N04      -0.097000
     17 CAO         -0.9920     1.7960    -1.4980 ca         1 N04      -0.137300
     18 CAN          0.3640     2.3670    -1.2140 c3         1 N04       0.216900
     19 CAA          3.0990     2.7760    -0.6420 ca         1 N04      -0.177000
     20 CAB          4.4540     2.8960    -0.3500 ca         1 N04      -0.083000
     21 CAG          5.2790     1.7900    -0.2790 ca         1 N04      -0.126000
     22 CAC          2.5630     1.5130    -0.8820 ca         1 N04       0.158100
     23 CAE          3.3920     0.3960    -0.8240 ca         1 N04      -0.114000
     24 CAF          4.7450     0.5150    -0.5080 ca         1 N04      -0.067800
     25 CAH          5.5100    -0.7190    -0.4400 ce         1 N04      -0.000200
     26 SBG          7.7260     0.1210     1.0450 ss         1 N04      -0.177200
     27 CAL          8.8760    -1.1840     1.4090 c          1 N04       0.591600
     28 NAX          8.4490    -2.3460     0.8300 ns         1 N04      -0.482500
     29 CA          -6.0340    -0.2880     1.3450 c3         1 N04      -0.051300
     30 CAK          7.2760    -2.3330     0.1130 c          1 N04       0.586200
     31 CAI          6.6940    -0.9680     0.1360 cd         1 N04      -0.147600
     32 OAY          1.2730     1.2740    -1.1780 os         1 N04      -0.328100
     33 HG1C        -6.4930    -2.8460     0.4840 hc         1 N04       0.008700
     34 HG2C        -6.4080    -1.8680    -0.9480 hc         1 N04       0.008700
     35 HB1C        -7.8250    -0.1110     0.1530 hc         1 N04       0.051200
     36 HB2C        -7.9810    -1.1210     1.5690 hc         1 N04       0.051200
     37 HA          -5.5370    -1.0760     1.9170 h1         1 N04       0.058700
     38 H           -5.5560     0.5410    -0.5240 hn         1 N04       0.298500
     39 HAQ         -1.4310     1.4270     0.5640 ha         1 N04       0.138000
     40 HAS         -4.4200     0.1720    -2.2440 ha         1 N04       0.135000
     41 HAR         -3.0320     0.9890    -4.0800 ha         1 N04       0.104000
     42 HAP         -0.8380     2.0240    -3.6280 ha         1 N04       0.091000
     43 HAN1         0.6530     3.0800    -1.9930 h1         1 N04       0.035700
     44 HAN2         0.3660     2.8960    -0.2550 h1         1 N04       0.035700
     45 HAA          2.4900     3.6680    -0.6860 ha         1 N04       0.124000
     46 HAB          4.8680     3.8810    -0.1820 ha         1 N04       0.109000
     47 HAE          2.9690    -0.5820    -1.0210 ha         1 N04       0.138000
     48 HAG          6.3320     1.9410    -0.0880 ha         1 N04       0.116000
     49 HAH          5.0370    -1.5810    -0.9000 ha         1 N04       0.205000
     50 HAX          8.9860    -3.1970     0.9430 hn         1 N04       0.344500
     51 OBE          6.8060    -3.2980    -0.4380 o          1 N04      -0.493000
     52 OBH          9.8700    -1.0320     2.0620 o          1 N04      -0.486000
@<TRIPOS>BOND
     1     1     2 1   
     2     2     3 1   
     3     2     4 1   
     4     4     5 1   
     5     4    33 1   
     6     4    34 1   
     7     5    29 1   
     8     5    35 1   
     9     5    36 1   
    10     6     7 1   
    11     6     8 1   
    12     6    29 1   
    13     9    10 1   
    14     9    29 1   
    15     9    38 1   
    16    10    11 2   
    17    10    12 1   
    18    12    13 ar  
    19    12    14 ar  
    20    13    17 ar  
    21    13    39 1   
    22    14    15 ar  
    23    14    40 1   
    24    15    16 ar  
    25    15    41 1   
    26    16    17 ar  
    27    16    42 1   
    28    17    18 1   
    29    18    32 1   
    30    18    43 1   
    31    18    44 1   
    32    19    20 ar  
    33    19    22 ar  
    34    19    45 1   
    35    20    21 ar  
    36    20    46 1   
    37    21    24 ar  
    38    21    48 1   
    39    22    23 ar  
    40    22    32 1   
    41    23    24 ar  
    42    23    47 1   
    43    24    25 1   
    44    25    31 2   
    45    25    49 1   
    46    26    27 1   
    47    26    31 1   
    48    27    28 1   
    49    27    52 2   
    50    28    30 1   
    51    28    50 1   
    52    29    37 1   
    53    30    31 1   
    54    30    51 2   
@<TRIPOS>SUBSTRUCTURE
     1 N04         1 TEMP              0 ****  ****    0 ROOT
