@<TRIPOS>MOLECULE
N05
   63    66     1     0     0
SMALL
abcg2


@<TRIPOS>ATOM
      1 O33         -9.3130    -0.4050     0.0820 o          1 N05      -0.741500
      2 C31         -8.2250    -0.9760     0.3130 c          1 N05       0.716000
      3 O32         -8.0810    -2.0940     0.8450 o          1 N05      -0.741500
      4 C30         -6.9580    -0.1970    -0.0850 c3         1 N05      -0.206400
      5 C29         -5.6530    -0.9700     0.0160 c3         1 N05      -0.050400
      6 C26         -4.4220    -0.1970    -0.4520 c6         1 N05      -0.063700
      7 C25         -4.1230     1.0340     0.3960 c6         1 N05      -0.077900
      8 C24         -2.8580     1.7490    -0.0580 c6         1 N05       0.195300
      9 C27         -3.1860    -1.0910    -0.4580 c6         1 N05      -0.077900
     10 C28         -1.9440    -0.3330    -0.8930 c6         1 N05       0.195300
     11 N23         -1.7210     0.8480    -0.0630 nh         1 N05      -0.778400
     12 C19         -0.4490     1.4130    -0.1330 ca         1 N05       0.329000
     13 C34         -0.2480     2.7680    -0.4210 ca         1 N05      -0.218000
     14 C18          1.0450     3.2440    -0.4710 ca         1 N05       0.186000
     15 F21          1.2260     4.5470    -0.7590 f          1 N05      -0.193000
     16 C17          2.1620     2.4620    -0.2620 ca         1 N05      -0.197000
     17 C20          0.6760     0.6160     0.1060 ca         1 N05      -0.153000
     18 C16          1.9680     1.1160     0.0410 ca         1 N05      -0.021300
     19 C4           3.1300     0.1330     0.2470 c6         1 N05       0.195800
     20 C14          4.5240     0.8250     0.3300 c3         1 N05      -0.042700
     21 C22          4.7070     1.7050     1.5650 c3         1 N05      -0.087600
     22 C15          5.6690    -0.1820     0.2750 c3         1 N05      -0.087600
     23 C3           2.8670    -0.7170     1.4900 ce         1 N05      -0.240900
     24 C8           2.4540    -0.0820     2.6750 cg         1 N05       0.316700
     25 N9           2.0910     0.4170     3.6550 n1         1 N05      -0.504000
     26 C2           2.9940    -2.0820     1.5480 c2         1 N05       0.393100
     27 N7           2.9410    -2.8280     2.6590 nv         1 N05      -0.965000
     28 C5           3.1070    -0.8330    -0.9000 cc         1 N05      -0.230300
     29 C10          3.0600    -0.6860    -2.2740 cd         1 N05      -0.088300
     30 C13          2.9790     0.5180    -3.1390 c3         1 N05      -0.034800
     31 N11          3.0950    -1.9350    -2.7720 na         1 N05      -0.008200
     32 N12          3.1550    -2.8940    -1.8440 nd         1 N05      -0.516800
     33 C6           3.1620    -2.2110    -0.7300 cc         1 N05       0.472300
     34 O1           3.2240    -2.8440     0.4660 os         1 N05      -0.336400
     35 H2          -7.0890     0.1790    -1.1060 hc         1 N05       0.015700
     36 H3          -6.9190     0.7000     0.5440 hc         1 N05       0.015700
     37 H4          -5.4940    -1.2990     1.0480 hc         1 N05       0.042200
     38 H5          -5.7300    -1.8840    -0.5810 hc         1 N05       0.042200
     39 H6          -4.5960     0.1390    -1.4840 hc         1 N05       0.033700
     40 H7          -4.9480     1.7490     0.3560 hc         1 N05       0.051700
     41 H8          -4.0110     0.7350     1.4440 hc         1 N05       0.051700
     42 H9          -3.0290     2.1910    -1.0530 h1         1 N05       0.028700
     43 H10         -2.6540     2.5730     0.6280 h1         1 N05       0.028700
     44 H11         -3.0250    -1.5040     0.5440 hc         1 N05       0.051700
     45 H12         -3.3320    -1.9370    -1.1340 hc         1 N05       0.051700
     46 H13         -1.0790    -0.9900    -0.8350 h1         1 N05       0.028700
     47 H14         -2.0490    -0.0370    -1.9490 h1         1 N05       0.028700
     48 H15         -1.0670     3.4430    -0.6260 ha         1 N05       0.134000
     49 H16          3.1410     2.9110    -0.3400 ha         1 N05       0.126000
     50 H17          0.5400    -0.4280     0.3610 ha         1 N05       0.128000
     51 H18          4.6130     1.4570    -0.5610 hc         1 N05       0.040700
     52 H19          4.8200     1.1020     2.4670 hc         1 N05       0.034867
     53 H20          5.6190     2.2950     1.4610 hc         1 N05       0.034867
     54 H21          3.8870     2.4020     1.7330 hc         1 N05       0.034867
     55 H22          5.6780    -0.7570    -0.6510 hc         1 N05       0.034867
     56 H23          6.6230     0.3430     0.3420 hc         1 N05       0.034867
     57 H24          5.6240    -0.8820     1.1120 hc         1 N05       0.034867
     58 H25          2.7280    -2.3970     3.5430 hn         1 N05       0.502500
     59 H26          2.7180    -3.8080     2.5830 hn         1 N05       0.502500
     60 H27          3.8270     1.1830    -2.9730 hc         1 N05       0.057367
     61 H28          2.9700     0.2470    -4.1940 hc         1 N05       0.057367
     62 H29          2.0730     1.0870    -2.9300 hc         1 N05       0.057367
     63 H30          3.0730    -2.1930    -3.7460 hn         1 N05       0.376000
@<TRIPOS>BOND
     1     1     2 1   
     2     2     3 1   
     3     2     4 1   
     4     4     5 1   
     5     4    35 1   
     6     4    36 1   
     7     5     6 1   
     8     5    37 1   
     9     5    38 1   
    10     6     7 1   
    11     6     9 1   
    12     6    39 1   
    13     7     8 1   
    14     7    40 1   
    15     7    41 1   
    16     8    11 1   
    17     8    42 1   
    18     8    43 1   
    19     9    10 1   
    20     9    44 1   
    21     9    45 1   
    22    10    11 1   
    23    10    46 1   
    24    10    47 1   
    25    11    12 1   
    26    12    13 ar  
    27    12    17 ar  
    28    13    14 ar  
    29    13    48 1   
    30    14    15 1   
    31    14    16 ar  
    32    16    18 ar  
    33    16    49 1   
    34    17    18 ar  
    35    17    50 1   
    36    18    19 1   
    37    19    20 1   
    38    19    23 1   
    39    19    28 1   
    40    20    21 1   
    41    20    22 1   
    42    20    51 1   
    43    21    52 1   
    44    21    53 1   
    45    21    54 1   
    46    22    55 1   
    47    22    56 1   
    48    22    57 1   
    49    23    24 1   
    50    23    26 2   
    51    24    25 3   
    52    26    27 1   
    53    26    34 1   
    54    27    58 1   
    55    27    59 1   
    56    28    29 2   
    57    28    33 1   
    58    29    30 1   
    59    29    31 1   
    60    30    60 1   
    61    30    61 1   
    62    30    62 1   
    63    31    32 1   
    64    31    63 1   
    65    32    33 2   
    66    33    34 1   
@<TRIPOS>SUBSTRUCTURE
     1 N05         1 TEMP              0 ****  ****    0 ROOT
