@<TRIPOS>MOLECULE
N05
   63    66     1     0     0
SMALL
No Charge or Current Charge


@<TRIPOS>ATOM
      1 O33         -8.7070    -1.8420     0.0700 o          1 N05      -0.741500
      2 C31         -8.0480    -1.2630     0.9200 c          1 N05       0.716000
      3 O32         -8.1610    -1.4700     2.1190 o          1 N05      -0.741500
      4 C30         -6.9770    -0.2610     0.4530 c3         1 N05      -0.206400
      5 C29         -5.6260    -0.9900     0.2260 c3         1 N05      -0.050400
      6 C26         -4.4910    -0.1230    -0.4040 c6         1 N05      -0.063700
      7 C25         -4.0750     1.0780     0.4910 c6         1 N05      -0.077900
      8 C24         -2.9160     1.8900    -0.1400 c6         1 N05       0.195300
      9 C27         -3.2370    -0.9850    -0.7110 c6         1 N05      -0.077900
     10 C28         -2.1010    -0.1380    -1.3320 c6         1 N05       0.195300
     11 N23         -1.7560     1.0150    -0.4590 nh         1 N05      -0.778400
     12 C19         -0.4360     1.5210    -0.4580 ca         1 N05       0.329000
     13 C34         -0.1720     2.8600    -0.7830 ca         1 N05      -0.218000
     14 C18          1.1450     3.3260    -0.7950 ca         1 N05       0.186000
     15 F21          1.3940     4.6100    -1.1300 f          1 N05      -0.193000
     16 C17          2.2120     2.4760    -0.4770 ca         1 N05      -0.197000
     17 C20          0.6350     0.6700    -0.1360 ca         1 N05      -0.153000
     18 C16          1.9710     1.1280    -0.1220 ca         1 N05      -0.021300
     19 C4           3.0990     0.1090     0.2110 c6         1 N05       0.195800
     20 C14          4.5300     0.7470     0.4770 c3         1 N05      -0.042700
     21 C22          4.6130     1.7280     1.6800 c3         1 N05      -0.087600
     22 C15          5.6720    -0.2970     0.6110 c3         1 N05      -0.087600
     23 C3           2.6800    -0.7870     1.4940 ce         1 N05      -0.240900
     24 C8           2.2170    -0.1650     2.7320 cg         1 N05       0.316700
     25 N9           1.8170     0.2970     3.7250 n1         1 N05      -0.504000
     26 C2           2.7140    -2.1560     1.4580 c2         1 N05       0.393100
     27 N7           2.3930    -3.0210     2.4790 nv         1 N05      -0.965000
     28 C5           3.2150    -0.8490    -0.9600 cc         1 N05      -0.230300
     29 C10          3.3620    -0.6230    -2.3010 cd         1 N05      -0.088300
     30 C13          3.4280     0.6610    -3.0880 c3         1 N05      -0.034800
     31 N11          3.4470    -1.9090    -2.8760 na         1 N05      -0.008200
     32 N12          3.3480    -2.9370    -1.9300 nd         1 N05      -0.516800
     33 C6           3.1990    -2.2380    -0.8300 cc         1 N05       0.472300
     34 O1           3.0460    -2.8760     0.3610 os         1 N05      -0.336400
     35 H2          -7.2540     0.1680    -0.5180 hc         1 N05       0.015700
     36 H3          -6.7960     0.4870     1.2330 hc         1 N05       0.015700
     37 H4          -5.2870    -1.4060     1.1830 hc         1 N05       0.042200
     38 H5          -5.8140    -1.8530    -0.4260 hc         1 N05       0.042200
     39 H6          -4.8830     0.2660    -1.3540 hc         1 N05       0.033700
     40 H7          -4.9260     1.7510     0.6540 hc         1 N05       0.051700
     41 H8          -3.7660     0.7170     1.4810 hc         1 N05       0.051700
     42 H9          -3.2740     2.3840    -1.0560 h1         1 N05       0.028700
     43 H10         -2.6180     2.6770     0.5670 h1         1 N05       0.028700
     44 H11         -2.8720    -1.4590     0.2110 hc         1 N05       0.051700
     45 H12         -3.4970    -1.8010    -1.3990 hc         1 N05       0.051700
     46 H13         -1.2250    -0.7840    -1.4920 h1         1 N05       0.028700
     47 H14         -2.4190     0.2270    -2.3200 h1         1 N05       0.028700
     48 H15         -0.9770     3.5360    -1.0480 ha         1 N05       0.134000
     49 H16          3.2160     2.8820    -0.5240 ha         1 N05       0.126000
     50 H17          0.4190    -0.3650     0.1080 ha         1 N05       0.128000
     51 H18          4.7950     1.3340    -0.4090 hc         1 N05       0.040700
     52 H19          4.6590     1.1860     2.6310 hc         1 N05       0.034867
     53 H20          5.5200     2.3400     1.6090 hc         1 N05       0.034867
     54 H21          3.7550     2.4080     1.7210 hc         1 N05       0.034867
     55 H22          5.7770    -0.8990    -0.2990 hc         1 N05       0.034867
     56 H23          6.6330     0.2030     0.7800 hc         1 N05       0.034867
     57 H24          5.4920    -0.9750     1.4540 hc         1 N05       0.034867
     58 H25          1.7710    -2.6580     3.1970 hn         1 N05       0.502500
     59 H26          2.2080    -3.9800     2.1970 hn         1 N05       0.502500
     60 H27          4.1720     1.3480    -2.6710 hc         1 N05       0.057367
     61 H28          3.7010     0.4770    -4.1340 hc         1 N05       0.057367
     62 H29          2.4580     1.1720    -3.0850 hc         1 N05       0.057367
     63 H30          3.5670    -2.1130    -3.8680 hn         1 N05       0.376000
@<TRIPOS>BOND
     1     1     2 1   
     2     2     3 1   
     3     2     4 1   
     4     4     5 1   
     5     4    35 1   
     6     4    36 1   
     7     5     6 1   
     8     5    37 1   
     9     5    38 1   
    10     6     7 1   
    11     6     9 1   
    12     6    39 1   
    13     7     8 1   
    14     7    40 1   
    15     7    41 1   
    16     8    11 1   
    17     8    42 1   
    18     8    43 1   
    19     9    10 1   
    20     9    44 1   
    21     9    45 1   
    22    10    11 1   
    23    10    46 1   
    24    10    47 1   
    25    11    12 1   
    26    12    13 ar  
    27    12    17 ar  
    28    13    14 ar  
    29    13    48 1   
    30    14    15 1   
    31    14    16 ar  
    32    16    18 ar  
    33    16    49 1   
    34    17    18 ar  
    35    17    50 1   
    36    18    19 1   
    37    19    20 1   
    38    19    23 1   
    39    19    28 1   
    40    20    21 1   
    41    20    22 1   
    42    20    51 1   
    43    21    52 1   
    44    21    53 1   
    45    21    54 1   
    46    22    55 1   
    47    22    56 1   
    48    22    57 1   
    49    23    24 1   
    50    23    26 2   
    51    24    25 3   
    52    26    27 1   
    53    26    34 1   
    54    27    58 1   
    55    27    59 1   
    56    28    29 2   
    57    28    33 1   
    58    29    30 1   
    59    29    31 1   
    60    30    60 1   
    61    30    61 1   
    62    30    62 1   
    63    31    32 1   
    64    31    63 1   
    65    32    33 2   
    66    33    34 1   
@<TRIPOS>SUBSTRUCTURE
     1 N05         1 TEMP              0 ****  ****    0 ROOT
