@<TRIPOS>MOLECULE
N06
   47    49     1     0     0
SMALL
bcc


@<TRIPOS>ATOM
      1 C17        -23.9210    27.8750   -28.9110 ca         1 N06       0.386300
      2 C20        -23.3130    26.6220   -28.7990 ca         1 N06      -0.153300
      3 C21        -23.6900    25.8420   -27.7470 ca         1 N06      -0.259300
      4 C22        -24.5450    24.4190   -25.3190 c6         1 N06       0.201800
      5 C26        -26.3740    21.5000   -18.5890 ca         1 N06      -0.211500
      6 C01        -29.2630    19.6250   -17.1370 c3         1 N06       0.224100
      7 C03        -27.2520    20.6280   -16.0500 c3         1 N06       0.224100
      8 C04        -27.5730    20.7760   -18.4560 ca         1 N06       0.209600
      9 C05        -28.3040    20.5320   -19.6350 ca         1 N06      -0.211500
     10 C06        -27.8490    20.9850   -20.8620 ca         1 N06      -0.063000
     11 C07        -26.6640    21.7010   -20.9910 ca         1 N06      -0.133300
     12 C08        -26.1900    22.1940   -22.3250 c3         1 N06      -0.093100
     13 C11        -27.1380    25.2210   -24.4450 c6         1 N06       0.086000
     14 C12        -26.0830    26.2310   -24.8590 c6         1 N06       0.201800
     15 C14        -24.6690    26.3520   -26.8570 ca         1 N06       0.638200
     16 C23        -25.6090    23.4150   -24.8960 c6         1 N06       0.086000
     17 C25        -25.9420    21.9430   -19.8290 ca         1 N06      -0.063000
     18 N10        -26.5260    24.0060   -23.9460 n          1 N06      -0.492800
     19 N13        -25.1570    25.6390   -25.8090 nh         1 N06      -0.779300
     20 N15        -25.1700    27.5750   -27.0400 nb         1 N06      -0.402000
     21 N16        -24.8010    28.3160   -28.0610 nb         1 N06      -0.261000
     22 O24        -27.6300    24.0780   -21.9840 o          1 N06      -0.580100
     23 CL18       -23.5020    28.9220   -30.2210 cl         1 N06      -0.155000
     24 H1         -22.5740    26.2850   -29.5130 ha         1 N06       0.159000
     25 H2         -23.2420    24.8680   -27.6250 ha         1 N06       0.147000
     26 H3         -23.9360    23.9460   -26.0830 h1         1 N06       0.061450
     27 H4         -23.8900    24.6420   -24.4680 h1         1 N06       0.061450
     28 H5         -25.7640    21.7220   -17.7240 ha         1 N06       0.129000
     29 H6         -29.4320    19.3400   -16.1020 h1         1 N06       0.034200
     30 H7         -30.1130    20.2390   -17.4540 h1         1 N06       0.034200
     31 H8         -29.2740    18.7100   -17.7350 h1         1 N06       0.034200
     32 H9         -27.7430    20.1850   -15.1880 h1         1 N06       0.034200
     33 H10        -26.2370    20.2220   -16.0940 h1         1 N06       0.034200
     34 H11        -27.1700    21.7040   -15.8700 h1         1 N06       0.034200
     35 H12        -29.2340    19.9820   -19.6030 ha         1 N06       0.129000
     36 H13        -28.4420    20.7670   -21.7430 ha         1 N06       0.121500
     37 H14        -26.3890    21.4440   -23.0960 hc         1 N06       0.057200
     38 H15        -25.1040    22.3270   -22.3090 hc         1 N06       0.057200
     39 H16        -27.7720    25.6560   -23.6780 h1         1 N06       0.062950
     40 H17        -27.7710    24.9800   -25.3060 h1         1 N06       0.062950
     41 H18        -25.5350    26.5770   -23.9740 h1         1 N06       0.061450
     42 H19        -26.5700    27.0920   -25.3060 h1         1 N06       0.061450
     43 H20        -26.1640    23.0870   -25.7810 h1         1 N06       0.062950
     44 H21        -25.1110    22.5440   -24.4800 h1         1 N06       0.062950
     45 H22        -25.0090    22.4920   -19.8840 ha         1 N06       0.121500
     46 C09        -26.8470    23.5090   -22.7280 c          1 N06       0.673100
     47 N02        -28.0070    20.3250   -17.2400 nh         1 N06      -0.699000
@<TRIPOS>BOND
     1     1     2 ar  
     2     1    21 ar  
     3     1    23 1   
     4     2     3 ar  
     5     2    24 1   
     6     3    15 ar  
     7     3    25 1   
     8     4    16 1   
     9     4    19 1   
    10     4    26 1   
    11     4    27 1   
    12     5     8 ar  
    13     5    17 ar  
    14     5    28 1   
    15     6    29 1   
    16     6    30 1   
    17     6    31 1   
    18     6    47 1   
    19     7    32 1   
    20     7    33 1   
    21     7    34 1   
    22     7    47 1   
    23     8     9 ar  
    24     8    47 1   
    25     9    10 ar  
    26     9    35 1   
    27    10    11 ar  
    28    10    36 1   
    29    11    12 1   
    30    11    17 ar  
    31    12    37 1   
    32    12    38 1   
    33    12    46 1   
    34    13    14 1   
    35    13    18 1   
    36    13    39 1   
    37    13    40 1   
    38    14    19 1   
    39    14    41 1   
    40    14    42 1   
    41    15    19 1   
    42    15    20 ar  
    43    16    18 1   
    44    16    43 1   
    45    16    44 1   
    46    17    45 1   
    47    18    46 1   
    48    20    21 ar  
    49    22    46 2   
@<TRIPOS>SUBSTRUCTURE
     1 N06         1 TEMP              0 ****  ****    0 ROOT
