@<TRIPOS>MOLECULE
N06
   47    49     1     0     0
SMALL
No Charge or Current Charge


@<TRIPOS>ATOM
      1 C17        -26.4430    26.2140   -29.1970 ca         1 N06       0.321000
      2 C20        -26.9380    25.0310   -28.6190 ca         1 N06      -0.070000
      3 C21        -26.5660    24.7390   -27.2900 ca         1 N06      -0.176000
      4 C22        -24.7820    24.0920   -24.8730 c6         1 N06       0.201800
      5 C26        -27.2840    22.0930   -18.8210 ca         1 N06      -0.193500
      6 C01        -29.3840    19.3020   -20.2570 c3         1 N06       0.224100
      7 C03        -29.2900    20.1180   -17.8660 c3         1 N06       0.224100
      8 C04        -27.5720    20.9190   -19.5440 ca         1 N06       0.348000
      9 C05        -26.6990    20.5370   -20.5810 ca         1 N06      -0.193500
     10 C06        -25.5670    21.3100   -20.8930 ca         1 N06      -0.045000
     11 C07        -25.2910    22.4860   -20.1720 ca         1 N06      -0.133300
     12 C08        -24.0650    23.3380   -20.5080 c3         1 N06      -0.093100
     13 C11        -24.9010    26.2960   -22.9530 c6         1 N06       0.086000
     14 C12        -24.6930    26.5170   -24.4760 c6         1 N06       0.201800
     15 C14        -25.7180    25.6410   -26.6160 ca         1 N06       0.572900
     16 C23        -24.9920    23.8210   -23.3580 c6         1 N06       0.086000
     17 C25        -26.1540    22.8700   -19.1300 ca         1 N06      -0.045000
     18 N10        -24.5550    24.9300   -22.4470 n          1 N06      -0.425800
     19 N13        -25.3050    25.4230   -25.2810 nh         1 N06      -0.779300
     20 N15        -25.2820    26.7720   -27.2320 nb         1 N06      -0.402000
     21 N16        -25.6370    27.0570   -28.5070 nb         1 N06      -0.261000
     22 O24        -24.6900    25.6470   -20.2710 o          1 N06      -0.580100
     23 Cl18       -26.8560    26.6610   -30.8470 cl         1 N06      -0.155000
     24 H1         -27.5900    24.3700   -29.1830 ha         1 N06       0.141000
     25 H2         -26.9380    23.8480   -26.7960 ha         1 N06       0.129000
     26 H3         -25.2620    23.2790   -25.4370 h1         1 N06       0.061450
     27 H4         -23.7060    24.0370   -25.0920 h1         1 N06       0.061450
     28 H5         -27.9400    22.4210   -18.0210 ha         1 N06       0.111000
     29 H6         -30.4380    19.1340   -19.9950 h1         1 N06       0.034200
     30 H7         -29.3630    19.8020   -21.2350 h1         1 N06       0.034200
     31 H8         -28.8870    18.3270   -20.3460 h1         1 N06       0.034200
     32 H9         -29.8450    19.1860   -17.6890 h1         1 N06       0.034200
     33 H10        -28.4950    20.1770   -17.1100 h1         1 N06       0.034200
     34 H11        -29.9760    20.9640   -17.7260 h1         1 N06       0.034200
     35 H12        -26.8830    19.6290   -21.1470 ha         1 N06       0.111000
     36 H13        -24.9070    20.9870   -21.6940 ha         1 N06       0.103500
     37 H14        -23.4520    22.8150   -21.2490 hc         1 N06       0.057200
     38 H15        -23.4740    23.4800   -19.5970 hc         1 N06       0.057200
     39 H16        -24.3090    27.0490   -22.4140 h1         1 N06       0.062950
     40 H17        -25.9570    26.4910   -22.7190 h1         1 N06       0.062950
     41 H18        -23.6140    26.5770   -24.6830 h1         1 N06       0.061450
     42 H19        -25.1310    27.4920   -24.7360 h1         1 N06       0.061450
     43 H20        -26.0610    23.6350   -23.1830 h1         1 N06       0.062950
     44 H21        -24.4620    22.8920   -23.1200 h1         1 N06       0.062950
     45 H22        -25.9540    23.7740   -18.5590 ha         1 N06       0.103500
     46 C09        -24.4730    24.7250   -21.0480 c          1 N06       0.606100
     47 N02        -28.7140    20.1360   -19.2310 nh         1 N06      -0.837400
@<TRIPOS>BOND
     1     1     2 ar  
     2     1    21 ar  
     3     1    23 1   
     4     2     3 ar  
     5     2    24 1   
     6     3    15 ar  
     7     3    25 1   
     8     4    16 1   
     9     4    19 1   
    10     4    26 1   
    11     4    27 1   
    12     5     8 ar  
    13     5    17 ar  
    14     5    28 1   
    15     6    29 1   
    16     6    30 1   
    17     6    31 1   
    18     6    47 1   
    19     7    32 1   
    20     7    33 1   
    21     7    34 1   
    22     7    47 1   
    23     8     9 ar  
    24     8    47 1   
    25     9    10 ar  
    26     9    35 1   
    27    10    11 ar  
    28    10    36 1   
    29    11    12 1   
    30    11    17 ar  
    31    12    37 1   
    32    12    38 1   
    33    12    46 1   
    34    13    14 1   
    35    13    18 1   
    36    13    39 1   
    37    13    40 1   
    38    14    19 1   
    39    14    41 1   
    40    14    42 1   
    41    15    19 1   
    42    15    20 ar  
    43    16    18 1   
    44    16    43 1   
    45    16    44 1   
    46    17    45 1   
    47    18    46 1   
    48    20    21 ar  
    49    22    46 2   
@<TRIPOS>SUBSTRUCTURE
     1 N06         1 TEMP              0 ****  ****    0 ROOT
