@<TRIPOS>MOLECULE
N07
   47    50     1     0     0
SMALL
bcc


@<TRIPOS>ATOM
      1 C01        141.8750   163.3970   191.2170 c3         1 N07      -0.119400
      2 C02        142.6620   162.5450   190.3000 cc         1 N07       0.465700
      3 N03        143.8220   162.0180   190.4760 nd         1 N07      -0.360000
      4 N04        144.1230   161.3250   189.3350 nd         1 N07      -0.361000
      5 C05        143.1250   161.4750   188.5350 cc         1 N07       0.524900
      6 C06        142.9460   160.9360   187.1970 ca         1 N07      -0.141500
      7 C07        141.7670   161.1480   186.4850 ca         1 N07      -0.090000
      8 C08        141.6380   160.6160   185.2110 ca         1 N07      -0.136000
      9 C09        142.6680   159.8810   184.6470 ca         1 N07      -0.095000
     10 C10        143.8570   159.6650   185.3480 cp         1 N07      -0.038000
     11 C11        144.9590   158.8870   184.7470 cp         1 N07      -0.045000
     12 C12        145.7490   158.0430   185.5300 ca         1 N07      -0.100000
     13 C13        146.7840   157.3170   184.9610 ca         1 N07      -0.135000
     14 C14        147.0360   157.4070   183.6000 ca         1 N07      -0.099000
     15 C15        146.2540   158.2400   182.8060 ca         1 N07      -0.142600
     16 C16        146.5720   158.4610   181.3580 c          1 N07       0.685700
     17 O17        146.8090   159.6010   180.9750 o          1 N07      -0.597100
     18 N18        146.6090   157.3860   180.5500 n          1 N07      -0.475800
     19 C19        147.0990   157.4920   179.1840 c6         1 N07       0.098000
     20 C20        148.2260   156.4910   178.9550 c6         1 N07      -0.093900
     21 C21        147.7900   155.0730   179.3100 c6         1 N07      -0.074400
     22 C22        147.2060   155.0160   180.7180 c6         1 N07      -0.093900
     23 C23        146.1090   156.0590   180.8790 c6         1 N07       0.098000
     24 C24        145.2370   158.9880   183.3850 ca         1 N07      -0.076000
     25 C25        143.9820   160.1990   186.6260 ca         1 N07      -0.072000
     26 O26        142.1690   162.2360   189.0880 os         1 N07      -0.372800
     27 H1         140.8940   163.6140   190.8030 hc         1 N07       0.069033
     28 H2         141.7450   162.8990   192.1770 hc         1 N07       0.069033
     29 H3         142.3900   164.3390   191.3980 hc         1 N07       0.069033
     30 H4         140.9520   161.7170   186.9110 ha         1 N07       0.145000
     31 H5         140.7210   160.7680   184.6580 ha         1 N07       0.138000
     32 H6         142.5370   159.4590   183.6590 ha         1 N07       0.137000
     33 H7         145.5460   157.9380   186.5880 ha         1 N07       0.139000
     34 H8         147.3890   156.6690   185.5800 ha         1 N07       0.137000
     35 H9         147.8460   156.8350   183.1640 ha         1 N07       0.138000
     36 H10        147.4360   158.5080   178.9980 h1         1 N07       0.054700
     37 H11        146.2710   157.2910   178.4940 h1         1 N07       0.054700
     38 H12        148.5400   156.5450   177.9100 hc         1 N07       0.048700
     39 H13        149.0880   156.7840   179.5610 hc         1 N07       0.048700
     40 H14        147.0260   154.7420   178.5980 hc         1 N07       0.042200
     41 H15        148.6290   154.3810   179.2150 hc         1 N07       0.042200
     42 H16        146.7930   154.0260   180.9220 hc         1 N07       0.048700
     43 H17        147.9890   155.1950   181.4610 hc         1 N07       0.048700
     44 H18        145.6910   156.0470   181.8820 h1         1 N07       0.054700
     45 H19        145.2860   155.8310   180.1910 h1         1 N07       0.054700
     46 H20        144.6580   159.6630   182.7660 ha         1 N07       0.146000
     47 H21        144.9010   160.0630   187.1810 ha         1 N07       0.159000
@<TRIPOS>BOND
     1     1     2 1   
     2     1    27 1   
     3     1    28 1   
     4     1    29 1   
     5     2     3 2   
     6     2    26 1   
     7     3     4 1   
     8     4     5 2   
     9     5     6 1   
    10     5    26 1   
    11     6     7 ar  
    12     6    25 ar  
    13     7     8 ar  
    14     7    30 1   
    15     8     9 ar  
    16     8    31 1   
    17     9    10 ar  
    18     9    32 1   
    19    10    11 1   
    20    10    25 ar  
    21    11    12 ar  
    22    11    24 ar  
    23    12    13 ar  
    24    12    33 1   
    25    13    14 ar  
    26    13    34 1   
    27    14    15 ar  
    28    14    35 1   
    29    15    16 1   
    30    15    24 ar  
    31    16    17 2   
    32    16    18 1   
    33    18    19 1   
    34    18    23 1   
    35    19    20 1   
    36    19    36 1   
    37    19    37 1   
    38    20    21 1   
    39    20    38 1   
    40    20    39 1   
    41    21    22 1   
    42    21    40 1   
    43    21    41 1   
    44    22    23 1   
    45    22    42 1   
    46    22    43 1   
    47    23    44 1   
    48    23    45 1   
    49    24    46 1   
    50    25    47 1   
@<TRIPOS>SUBSTRUCTURE
     1 N07         1 TEMP              0 ****  ****    0 ROOT
