@<TRIPOS>MOLECULE
N07
   47    50     1     0     0
SMALL
No Charge or Current Charge


@<TRIPOS>ATOM
      1 C01        141.8410   163.5320   191.3910 c3         1 N07      -0.119400
      2 C02        142.6240   162.6900   190.4310 cc         1 N07       0.421300
      3 N03        143.8380   162.1940   190.6050 nd         1 N07      -0.360000
      4 N04        144.1270   161.4980   189.4580 nd         1 N07      -0.361000
      5 C05        143.0660   161.6240   188.6730 cc         1 N07       0.480500
      6 C06        142.8760   161.0610   187.3300 ca         1 N07      -0.141500
      7 C07        141.6800   161.2850   186.6140 ca         1 N07      -0.072000
      8 C08        141.5090   160.7460   185.3300 ca         1 N07      -0.118000
      9 C09        142.5260   159.9770   184.7440 ca         1 N07      -0.077000
     10 C10        143.7390   159.7300   185.4320 cp         1 N07      -0.038000
     11 C11        144.8260   158.9090   184.8100 cp         1 N07      -0.045000
     12 C12        145.6210   158.0360   185.5910 ca         1 N07      -0.082000
     13 C13        146.6450   157.2750   185.0070 ca         1 N07      -0.117000
     14 C14        146.8930   157.3630   183.6280 ca         1 N07      -0.081000
     15 C15        146.1050   158.2070   182.8130 ca         1 N07      -0.142600
     16 C16        146.3640   158.3450   181.3270 c          1 N07       0.618700
     17 O17        146.1430   159.4050   180.7510 o          1 N07      -0.597100
     18 N18        146.9690   157.2630   180.6470 n          1 N07      -0.408800
     19 C19        147.5030   157.4950   179.2720 c6         1 N07       0.098000
     20 C20        148.4590   156.3810   178.7830 c6         1 N07      -0.093900
     21 C21        147.8110   154.9890   178.9100 c6         1 N07      -0.074400
     22 C22        147.3500   154.7650   180.3630 c6         1 N07      -0.093900
     23 C23        146.3980   155.8920   180.8250 c6         1 N07       0.098000
     24 C24        145.0930   158.9830   183.4190 ca         1 N07      -0.058000
     25 C25        143.8920   160.2840   186.7290 ca         1 N07      -0.054000
     26 O26        142.0790   162.3680   189.2330 os         1 N07      -0.284000
     27 H1         140.8990   163.0390   191.6550 hc         1 N07       0.069033
     28 H2         142.4060   163.7060   192.3140 hc         1 N07       0.069033
     29 H3         141.6060   164.5060   190.9460 hc         1 N07       0.069033
     30 H4         140.8770   161.8780   187.0480 ha         1 N07       0.127000
     31 H5         140.5820   160.9220   184.7870 ha         1 N07       0.120000
     32 H6         142.3660   159.5580   183.7540 ha         1 N07       0.119000
     33 H7         145.4390   157.9410   186.6590 ha         1 N07       0.121000
     34 H8         147.2520   156.6170   185.6250 ha         1 N07       0.119000
     35 H9         147.7090   156.7840   183.2000 ha         1 N07       0.120000
     36 H10        148.0390   158.4550   179.2450 h1         1 N07       0.054700
     37 H11        146.6560   157.5760   178.5750 h1         1 N07       0.054700
     38 H12        148.7470   156.5690   177.7400 hc         1 N07       0.048700
     39 H13        149.3850   156.4120   179.3740 hc         1 N07       0.048700
     40 H14        146.9540   154.9090   178.2260 hc         1 N07       0.042200
     41 H15        148.5270   154.2090   178.6150 hc         1 N07       0.042200
     42 H16        146.8450   153.7930   180.4520 hc         1 N07       0.048700
     43 H17        148.2230   154.7270   181.0290 hc         1 N07       0.048700
     44 H18        146.1150   155.7110   181.8700 h1         1 N07       0.054700
     45 H19        145.4690   155.8300   180.2390 h1         1 N07       0.054700
     46 H20        144.5050   159.6590   182.8020 ha         1 N07       0.128000
     47 H21        144.8230   160.1170   187.2660 ha         1 N07       0.141000
@<TRIPOS>BOND
     1     1     2 1   
     2     1    27 1   
     3     1    28 1   
     4     1    29 1   
     5     2     3 2   
     6     2    26 1   
     7     3     4 1   
     8     4     5 2   
     9     5     6 1   
    10     5    26 1   
    11     6     7 ar  
    12     6    25 ar  
    13     7     8 ar  
    14     7    30 1   
    15     8     9 ar  
    16     8    31 1   
    17     9    10 ar  
    18     9    32 1   
    19    10    11 1   
    20    10    25 ar  
    21    11    12 ar  
    22    11    24 ar  
    23    12    13 ar  
    24    12    33 1   
    25    13    14 ar  
    26    13    34 1   
    27    14    15 ar  
    28    14    35 1   
    29    15    16 1   
    30    15    24 ar  
    31    16    17 2   
    32    16    18 1   
    33    18    19 1   
    34    18    23 1   
    35    19    20 1   
    36    19    36 1   
    37    19    37 1   
    38    20    21 1   
    39    20    38 1   
    40    20    39 1   
    41    21    22 1   
    42    21    40 1   
    43    21    41 1   
    44    22    23 1   
    45    22    42 1   
    46    22    43 1   
    47    23    44 1   
    48    23    45 1   
    49    24    46 1   
    50    25    47 1   
@<TRIPOS>SUBSTRUCTURE
     1 N07         1 TEMP              0 ****  ****    0 ROOT
