@<TRIPOS>MOLECULE
N08
   29    30     1     0     0
SMALL
No Charge or Current Charge


@<TRIPOS>ATOM
      1 N1         -10.1770   -13.3820    92.0900 ns         1 N08      -0.497900
      2 C4          -6.1570   -14.4300    92.1410 cc         1 N08       0.144900
      3 C5          -9.2010   -12.4320    91.8720 c          1 N08       0.537600
      4 C6         -11.6200   -13.1260    92.0650 c3         1 N08       0.105000
      5 C7         -12.1720   -13.0060    90.6310 c3         1 N08      -0.054100
      6 C8         -13.6750   -12.7620    90.6190 ca         1 N08      -0.097300
      7 C10        -15.9580   -13.6170    90.4980 ca         1 N08      -0.150500
      8 C13        -14.1800   -11.4510    90.7330 ca         1 N08      -0.080500
      9 C1          -5.6010   -13.2040    91.8880 cd         1 N08      -0.199000
     10 C2          -6.6580   -12.2810    91.7510 cd         1 N08      -0.102000
     11 C3          -7.8200   -12.9840    91.9270 cc         1 N08       0.049500
     12 O1          -7.5300   -14.3140    92.1690 os         1 N08      -0.244000
     13 O2          -9.4680   -11.2560    91.6600 o          1 N08      -0.594100
     14 C9         -14.5700   -13.8450    90.5030 ca         1 N08      -0.080500
     15 C11        -16.4520   -12.3090    90.6100 ca         1 N08       0.170000
     16 C12        -15.5680   -11.2260    90.7270 ca         1 N08      -0.150500
     17 F1         -17.7850   -12.0910    90.6050 f          1 N08      -0.180000
     18 H1          -9.8520   -14.3280    92.2610 hn         1 N08       0.326500
     19 H3         -11.8300   -12.2010    92.6200 h1         1 N08       0.059200
     20 H4         -12.1300   -13.9500    92.5820 h1         1 N08       0.059200
     21 H5         -11.9310   -13.9210    90.0770 hc         1 N08       0.058200
     22 H6         -11.6570   -12.1890    90.1120 hc         1 N08       0.058200
     23 H7         -16.6490   -14.4520    90.4080 ha         1 N08       0.132000
     24 H8         -13.4980   -10.6090    90.8260 ha         1 N08       0.119000
     25 H9          -4.5400   -12.9920    91.8090 ha         1 N08       0.147000
     26 H10         -6.5760   -11.2170    91.5460 ha         1 N08       0.159000
     27 H11        -14.1910   -14.8620    90.4180 ha         1 N08       0.119000
     28 H12        -15.9590   -10.2150    90.8150 ha         1 N08       0.132000
     29 H2          -5.7240   -15.4060    92.3110 h4         1 N08       0.055100
@<TRIPOS>BOND
     1     1     3 1   
     2     1     4 1   
     3     1    18 1   
     4     2     9 2   
     5     2    12 1   
     6     2    29 1   
     7     3    11 1   
     8     3    13 2   
     9     4     5 1   
    10     4    19 1   
    11     4    20 1   
    12     5     6 1   
    13     5    21 1   
    14     5    22 1   
    15     6     8 ar  
    16     6    14 ar  
    17     7    14 ar  
    18     7    15 ar  
    19     7    23 1   
    20     8    16 ar  
    21     8    24 1   
    22     9    10 1   
    23     9    25 1   
    24    10    11 2   
    25    10    26 1   
    26    11    12 1   
    27    14    27 1   
    28    15    16 ar  
    29    15    17 1   
    30    16    28 1   
@<TRIPOS>SUBSTRUCTURE
     1 N08         1 TEMP              0 ****  ****    0 ROOT
