@<TRIPOS>MOLECULE
N08
   29    30     1     0     0
SMALL
abcg2


@<TRIPOS>ATOM
      1 N1         -10.1990   -13.4740    92.0560 ns         1 N08      -0.497900
      2 C4          -6.2130   -14.3190    92.0770 cc         1 N08       0.144900
      3 C5          -9.2820   -12.5030    91.9140 c          1 N08       0.537600
      4 C6         -11.6190   -13.2120    92.0070 c3         1 N08       0.105000
      5 C7         -12.1680   -13.1540    90.5770 c3         1 N08      -0.054100
      6 C8         -13.6350   -12.8340    90.5780 ca         1 N08      -0.097300
      7 C10        -15.9520   -13.5470    90.5890 ca         1 N08      -0.150500
      8 C13        -14.0680   -11.5120    90.6640 ca         1 N08      -0.080500
      9 C1          -5.6560   -13.0910    91.9290 cd         1 N08      -0.199000
     10 C2          -6.7410   -12.1760    91.8390 cd         1 N08      -0.102000
     11 C3          -7.8720   -12.9210    91.9400 cc         1 N08       0.049500
     12 O1          -7.5530   -14.2260    92.0860 os         1 N08      -0.244000
     13 O2          -9.5610   -11.3180    91.7800 o          1 N08      -0.594100
     14 C9         -14.5960   -13.8410    90.5440 ca         1 N08      -0.080500
     15 C11        -16.3380   -12.2240    90.6740 ca         1 N08       0.170000
     16 C12        -15.4180   -11.1940    90.7110 ca         1 N08      -0.150500
     17 F1         -17.6490   -11.9280    90.7180 f          1 N08      -0.180000
     18 H1          -9.9030   -14.4350    92.1190 hn         1 N08       0.326500
     19 H3         -11.8280   -12.2750    92.5230 h1         1 N08       0.059200
     20 H4         -12.1200   -14.0030    92.5640 h1         1 N08       0.059200
     21 H5         -11.9870   -14.1110    90.0860 hc         1 N08       0.058200
     22 H6         -11.6200   -12.3950    90.0150 hc         1 N08       0.058200
     23 H7         -16.6940   -14.3350    90.5570 ha         1 N08       0.132000
     24 H8         -13.3390   -10.7110    90.6910 ha         1 N08       0.119000
     25 H9          -4.6030   -12.8670    91.8890 ha         1 N08       0.147000
     26 H10         -6.6860   -11.1070    91.7170 ha         1 N08       0.159000
     27 H11        -14.2860   -14.8770    90.4740 ha         1 N08       0.119000
     28 H12        -15.7460   -10.1650    90.7740 ha         1 N08       0.132000
     29 H2          -5.7950   -15.3060    92.1830 h4         1 N08       0.055100
@<TRIPOS>BOND
     1     1     3 1   
     2     1     4 1   
     3     1    18 1   
     4     2     9 2   
     5     2    12 1   
     6     2    29 1   
     7     3    11 1   
     8     3    13 2   
     9     4     5 1   
    10     4    19 1   
    11     4    20 1   
    12     5     6 1   
    13     5    21 1   
    14     5    22 1   
    15     6     8 ar  
    16     6    14 ar  
    17     7    14 ar  
    18     7    15 ar  
    19     7    23 1   
    20     8    16 ar  
    21     8    24 1   
    22     9    10 1   
    23     9    25 1   
    24    10    11 2   
    25    10    26 1   
    26    11    12 1   
    27    14    27 1   
    28    15    16 ar  
    29    15    17 1   
    30    16    28 1   
@<TRIPOS>SUBSTRUCTURE
     1 N08         1 TEMP              0 ****  ****    0 ROOT
