@<TRIPOS>MOLECULE
N09
   41    44     1     0     0
SMALL
bcc


@<TRIPOS>ATOM
      1 O4           6.2620     1.1100    -1.4350 o          1 N09      -0.555500
      2 C22          5.3130     0.6560    -0.8510 c          1 N09       0.804200
      3 C17          4.1510     1.3600    -0.3950 cc         1 N09      -0.388900
      4 C16          3.7710     2.7110    -0.4820 cc         1 N09       0.397200
      5 N3           2.6070     2.8900     0.0860 nd         1 N09      -0.518800
      6 O3           5.3090    -0.6740    -0.5740 os         1 N09      -0.346200
      7 C20          4.3070    -1.3290     0.0740 ca         1 N09       0.183100
      8 C26          4.4910    -2.6940     0.2500 ca         1 N09      -0.146000
      9 C25          3.5190    -3.4320     0.8970 ca         1 N09      -0.079000
     10 C24          2.3640    -2.8140     1.3690 ca         1 N09      -0.154000
     11 C23          2.1830    -1.4570     1.1900 ca         1 N09      -0.074000
     12 C19          3.1520    -0.6850     0.5410 ca         1 N09      -0.101000
     13 C18          3.1150     0.7290     0.2720 cd         1 N09       0.055700
     14 N2           2.2200     1.6890     0.5540 na         1 N09       0.127400
     15 C13          0.9260     1.5770     1.1600 c3         1 N09      -0.038700
     16 C11         -0.0710     0.9240     0.2050 c          1 N09       0.653100
     17 O2           0.2520     0.5730    -0.9100 o          1 N09      -0.539100
     18 N1          -1.3000     0.7900     0.7520 ns         1 N09      -0.473100
     19 C4          -2.4610     0.2520     0.1850 ca         1 N09       0.107600
     20 C3          -2.4980    -0.4100    -1.0380 ca         1 N09      -0.178000
     21 C2          -3.7100    -0.9130    -1.4920 ca         1 N09      -0.061000
     22 C5          -3.6310     0.3990     0.9340 ca         1 N09      -0.273000
     23 C6          -4.8410    -0.1060     0.4780 ca         1 N09       0.179100
     24 C1          -4.8660    -0.7670    -0.7550 ca         1 N09      -0.035600
     25 CL          -6.3650    -1.3970    -1.3420 cl         1 N09      -0.087400
     26 O1          -6.0000    -0.0030     1.1340 os         1 N09      -0.296900
     27 C8          -6.0160     0.6490     2.3920 c3         1 N09       0.123700
     28 H1           4.3040     3.5360    -0.9290 h4         1 N09       0.059100
     29 H2           5.3910    -3.1640    -0.1240 ha         1 N09       0.160000
     30 H3           3.6620    -4.4950     1.0350 ha         1 N09       0.142000
     31 H4           1.6040    -3.3920     1.8750 ha         1 N09       0.140000
     32 H5           1.2810    -1.0070     1.5730 ha         1 N09       0.125000
     33 H6           0.9890     1.0250     2.0990 h1         1 N09       0.090200
     34 H7           0.5950     2.5850     1.4110 h1         1 N09       0.090200
     35 H8          -1.4160     1.1570     1.6860 hn         1 N09       0.316500
     36 H9          -1.6150    -0.5460    -1.6380 ha         1 N09       0.172000
     37 H10         -3.7450    -1.4300    -2.4410 ha         1 N09       0.153000
     38 H11         -3.5830     0.9190     1.8830 ha         1 N09       0.133000
     39 H12         -7.0460     0.6170     2.7380 h1         1 N09       0.044367
     40 H13         -5.3810     0.1400     3.1210 h1         1 N09       0.044367
     41 H14         -5.7020     1.6920     2.3120 h1         1 N09       0.044367
@<TRIPOS>BOND
     1     1     2 2   
     2     2     3 1   
     3     2     6 1   
     4     3     4 1   
     5     3    13 2   
     6     4     5 2   
     7     4    28 1   
     8     5    14 1   
     9     6     7 1   
    10     7     8 ar  
    11     7    12 ar  
    12     8     9 ar  
    13     8    29 1   
    14     9    10 ar  
    15     9    30 1   
    16    10    11 ar  
    17    10    31 1   
    18    11    12 ar  
    19    11    32 1   
    20    12    13 1   
    21    13    14 1   
    22    14    15 1   
    23    15    16 1   
    24    15    33 1   
    25    15    34 1   
    26    16    17 2   
    27    16    18 1   
    28    18    19 1   
    29    18    35 1   
    30    19    20 ar  
    31    19    22 ar  
    32    20    21 ar  
    33    20    36 1   
    34    21    24 ar  
    35    21    37 1   
    36    22    23 ar  
    37    22    38 1   
    38    23    24 ar  
    39    23    26 1   
    40    24    25 1   
    41    26    27 1   
    42    27    39 1   
    43    27    40 1   
    44    27    41 1   
@<TRIPOS>SUBSTRUCTURE
     1 N09         1 TEMP              0 ****  ****    0 ROOT
