@<TRIPOS>MOLECULE
N09
   41    44     1     0     0
SMALL
No Charge or Current Charge


@<TRIPOS>ATOM
      1 O4           6.5120     1.1480    -1.1110 o          1 N09      -0.480000
      2 C22          5.5230     0.6140    -0.6320 c          1 N09       0.728700
      3 C17          4.3060     1.3450    -0.2860 cc         1 N09      -0.323600
      4 C16          4.0430     2.7050    -0.4230 cc         1 N09       0.331900
      5 N3           2.8320     3.0360    -0.0120 nd         1 N09      -0.518800
      6 O3           5.4690    -0.7360    -0.3760 os         1 N09      -0.346200
      7 C20          4.3750    -1.3890     0.1680 ca         1 N09       0.183100
      8 C26          4.4590    -2.7740     0.3800 ca         1 N09      -0.128000
      9 C25          3.3710    -3.4700     0.9330 ca         1 N09      -0.061000
     10 C24          2.1990    -2.7760     1.2750 ca         1 N09      -0.136000
     11 C23          2.1070    -1.3880     1.0670 ca         1 N09      -0.056000
     12 C19          3.1960    -0.6840     0.5080 ca         1 N09      -0.101000
     13 C18          3.2180     0.7570     0.2420 cd         1 N09       0.005000
     14 N2           2.2980     1.8130     0.4020 na         1 N09       0.148800
     15 C13          0.9290     1.7670     0.9360 c3         1 N09      -0.009400
     16 C11         -0.0860     1.1170    -0.0100 c          1 N09       0.586100
     17 O2           0.1790     0.8270    -1.1720 o          1 N09      -0.539100
     18 N1          -1.3230     0.8940     0.5810 ns         1 N09      -0.147000
     19 C4          -2.5190     0.2930     0.1010 ca         1 N09       0.015000
     20 C3          -2.6170    -0.3650    -1.1430 ca         1 N09      -0.160000
     21 C2          -3.8330    -0.9420    -1.5480 ca         1 N09      -0.043000
     22 C5          -3.6520     0.3550     0.9340 ca         1 N09      -0.255000
     23 C6          -4.8790    -0.2220     0.5320 ca         1 N09       0.179100
     24 C1          -4.9610    -0.8710    -0.7170 ca         1 N09       0.056000
     25 Cl          -6.4720    -1.6060    -1.2570 cl         1 N09      -0.179000
     26 O1          -6.0080    -0.1720     1.3300 os         1 N09      -0.320100
     27 C8          -6.0170     0.4680     2.6180 c3         1 N09       0.146900
     28 H1           4.6990     3.4730    -0.8120 h4         1 N09       0.059100
     29 H2           5.3680    -3.3070     0.1150 ha         1 N09       0.142000
     30 H3           3.4370    -4.5440     1.0960 ha         1 N09       0.124000
     31 H4           1.3570    -3.3150     1.7050 ha         1 N09       0.122000
     32 H5           1.1900    -0.8870     1.3470 ha         1 N09       0.107000
     33 H6           0.9320     1.2270     1.8890 h1         1 N09       0.090200
     34 H7           0.5850     2.7880     1.1360 h1         1 N09       0.090200
     35 H8          -1.3890     1.2120     1.5400 hn         1 N09       0.150000
     36 H9          -1.7650    -0.4500    -1.8100 ha         1 N09       0.154000
     37 H10         -3.9010    -1.4470    -2.5090 ha         1 N09       0.135000
     38 H11         -3.5640     0.8600     1.8920 ha         1 N09       0.115000
     39 H12         -7.0110     0.3890     3.0740 h1         1 N09       0.044367
     40 H13         -5.2940    -0.0070     3.2940 h1         1 N09       0.044367
     41 H14         -5.7690     1.5330     2.5260 h1         1 N09       0.044367
@<TRIPOS>BOND
     1     1     2 2   
     2     2     3 1   
     3     2     6 1   
     4     3     4 1   
     5     3    13 2   
     6     4     5 2   
     7     4    28 1   
     8     5    14 1   
     9     6     7 1   
    10     7     8 ar  
    11     7    12 ar  
    12     8     9 ar  
    13     8    29 1   
    14     9    10 ar  
    15     9    30 1   
    16    10    11 ar  
    17    10    31 1   
    18    11    12 ar  
    19    11    32 1   
    20    12    13 1   
    21    13    14 1   
    22    14    15 1   
    23    15    16 1   
    24    15    33 1   
    25    15    34 1   
    26    16    17 2   
    27    16    18 1   
    28    18    19 1   
    29    18    35 1   
    30    19    20 ar  
    31    19    22 ar  
    32    20    21 ar  
    33    20    36 1   
    34    21    24 ar  
    35    21    37 1   
    36    22    23 ar  
    37    22    38 1   
    38    23    24 ar  
    39    23    26 1   
    40    24    25 1   
    41    26    27 1   
    42    27    39 1   
    43    27    40 1   
    44    27    41 1   
@<TRIPOS>SUBSTRUCTURE
     1 N09         1 TEMP              0 ****  ****    0 ROOT
