@<TRIPOS>MOLECULE
N0C
   66    67     1     0     0
SMALL
abcg2


@<TRIPOS>ATOM
      1 C11        139.3780   111.2640    39.3460 ca         1 N0C       0.134300
      2 C12        138.1820   111.5730    38.7050 ca         1 N0C      -0.218000
      3 C13        137.5920   112.7910    39.0250 ca         1 N0C       0.091700
      4 C14        136.3320   113.1660    38.3770 ce         1 N0C       0.302200
      5 C17        133.8550   115.6440    38.3520 c          1 N0C       0.622100
      6 C21        132.3150   117.2270    40.4430 c3         1 N0C       0.082900
      7 C22        133.4460   118.6630    38.7850 c3         1 N0C       0.082900
      8 C23        134.4090   118.3450    41.0030 c3         1 N0C       0.082900
      9 C25        139.2890   113.2530    40.4790 cp         1 N0C       0.238500
     10 C01        137.4460   108.1300    35.7370 c3         1 N0C       0.084900
     11 C03        136.8520   105.8020    36.2300 c3         1 N0C       0.084900
     12 C04        135.5000   107.6290    37.1220 c3         1 N0C       0.084900
     13 C05        137.7160   107.2640    38.0470 c3         1 N0C       0.021600
     14 C06        139.1920   106.9260    37.8480 c          1 N0C       0.598100
     15 C10        140.1030   109.9620    39.1300 c3         1 N0C       0.079500
     16 C19        134.4720   116.4970    39.4520 c3         1 N0C       0.019600
     17 C27        139.9010   114.1780    41.4640 cp         1 N0C      -0.182500
     18 C28        139.2670   115.3820    41.7910 ca         1 N0C      -0.058500
     19 C29        139.8350   116.2500    42.7140 ca         1 N0C      -0.120000
     20 C30        141.0460   115.9300    43.3220 ca         1 N0C      -0.061000
     21 C31        141.6840   114.7350    43.0020 ca         1 N0C      -0.120000
     22 C32        141.1170   113.8650    42.0800 ca         1 N0C      -0.058500
     23 N02        136.8970   107.1990    36.7780 n4         1 N0C      -0.507000
     24 N08        140.0580   107.9600    37.8400 ns         1 N0C      -0.380300
     25 N09        139.6570   109.2910    37.9130 n7         1 N0C      -0.653400
     26 N15        135.7290   114.2450    38.6930 n2         1 N0C      -0.421300
     27 N16        134.5750   114.5280    38.0530 ns         1 N0C      -0.270900
     28 N20        133.6440   117.6690    39.8960 n4         1 N0C      -0.507000
     29 N24        138.1430   113.6280    39.9110 nb         1 N0C      -0.161000
     30 N26        139.9300   112.1030    40.2210 nb         1 N0C      -0.162000
     31 O07        139.5690   105.7640    37.7430 o          1 N0C      -0.533100
     32 O18        132.8160   115.8980    37.7670 o          1 N0C      -0.552100
     33 H1         137.7310   110.8950    37.9970 ha         1 N0C       0.119000
     34 H2         135.9370   112.4830    37.6230 h4         1 N0C      -0.002200
     35 H3         132.5000   116.5070    41.2380 hx         1 N0C       0.101700
     36 H4         131.8120   118.1050    40.8390 hx         1 N0C       0.101700
     37 H5         131.7380   116.7820    39.6430 hx         1 N0C       0.101700
     38 H6         132.9150   119.5170    39.1980 hx         1 N0C       0.101700
     39 H7         134.4250   118.9650    38.4230 hx         1 N0C       0.101700
     40 H8         132.8690   118.1960    37.9970 hx         1 N0C       0.101700
     41 H9         134.5420   117.6350    41.8150 hx         1 N0C       0.101700
     42 H10        135.3710   118.6650    40.6120 hx         1 N0C       0.101700
     43 H11        133.8290   119.2010    41.3360 hx         1 N0C       0.101700
     44 H12        138.4390   107.7960    35.4500 hx         1 N0C       0.098811
     45 H13        136.7820   108.1000    34.8790 hx         1 N0C       0.098811
     46 H14        137.4880   109.1290    36.1580 hx         1 N0C       0.098811
     47 H15        136.4370   105.1480    36.9920 hx         1 N0C       0.098811
     48 H16        136.2160   105.8120    35.3480 hx         1 N0C       0.098811
     49 H17        137.8580   105.4900    35.9730 hx         1 N0C       0.098811
     50 H18        135.1170   106.9690    37.8960 hx         1 N0C       0.098811
     51 H19        135.5340   108.6560    37.4770 hx         1 N0C       0.098811
     52 H20        134.8930   107.5560    36.2240 hx         1 N0C       0.098811
     53 H21        137.5930   108.2640    38.4470 hx         1 N0C       0.116200
     54 H22        137.2990   106.5270    38.7280 hx         1 N0C       0.116200
     55 H23        139.8730   109.3040    39.9730 h1         1 N0C       0.089700
     56 H24        141.1830   110.1500    39.1510 h1         1 N0C       0.089700
     57 H25        134.6560   115.8800    40.3280 hx         1 N0C       0.126200
     58 H26        135.4320   116.8840    39.1110 hx         1 N0C       0.126200
     59 H27        138.3280   115.6290    41.3180 ha         1 N0C       0.124000
     60 H28        139.3330   117.1770    42.9590 ha         1 N0C       0.126000
     61 H29        141.4900   116.6080    44.0410 ha         1 N0C       0.132000
     62 H30        142.6260   114.4810    43.4710 ha         1 N0C       0.126000
     63 H31        141.6110   112.9370    41.8310 ha         1 N0C       0.124000
     64 H32        141.0470   107.7340    37.7840 hn         1 N0C       0.353500
     65 H33        139.9770   109.7760    37.0810 hn         1 N0C       0.443000
     66 H34        134.2070   113.9100    37.3310 hn         1 N0C       0.339500
@<TRIPOS>BOND
     1     1     2 ar  
     2     1    15 1   
     3     1    30 ar  
     4     2     3 ar  
     5     2    33 1   
     6     3     4 1   
     7     3    29 ar  
     8     4    26 2   
     9     4    34 1   
    10     5    16 1   
    11     5    27 1   
    12     5    32 2   
    13     6    28 1   
    14     6    35 1   
    15     6    36 1   
    16     6    37 1   
    17     7    28 1   
    18     7    38 1   
    19     7    39 1   
    20     7    40 1   
    21     8    28 1   
    22     8    41 1   
    23     8    42 1   
    24     8    43 1   
    25     9    17 1   
    26     9    29 ar  
    27     9    30 ar  
    28    10    23 1   
    29    10    44 1   
    30    10    45 1   
    31    10    46 1   
    32    11    23 1   
    33    11    47 1   
    34    11    48 1   
    35    11    49 1   
    36    12    23 1   
    37    12    50 1   
    38    12    51 1   
    39    12    52 1   
    40    13    14 1   
    41    13    23 1   
    42    13    53 1   
    43    13    54 1   
    44    14    24 1   
    45    14    31 2   
    46    15    25 1   
    47    15    55 1   
    48    15    56 1   
    49    16    28 1   
    50    16    57 1   
    51    16    58 1   
    52    17    18 ar  
    53    17    22 ar  
    54    18    19 ar  
    55    18    59 1   
    56    19    20 ar  
    57    19    60 1   
    58    20    21 ar  
    59    20    61 1   
    60    21    22 ar  
    61    21    62 1   
    62    22    63 1   
    63    24    25 1   
    64    24    64 1   
    65    25    65 1   
    66    26    27 1   
    67    27    66 1   
@<TRIPOS>SUBSTRUCTURE
     1 N0C         1 TEMP              0 ****  ****    0 ROOT
