@<TRIPOS>MOLECULE
N0C
   66    67     1     0     0
SMALL
No Charge or Current Charge


@<TRIPOS>ATOM
      1 C11        138.6170   111.1510    40.0720 ca         1 N0C       0.134300
      2 C12        137.4320   111.5380    39.4210 ca         1 N0C      -0.218000
      3 C13        137.2020   112.9150    39.2370 ca         1 N0C       0.091700
      4 C14        135.9680   113.4010    38.5460 ce         1 N0C       0.302200
      5 C17        133.7670   115.8530    38.2350 c          1 N0C       0.622100
      6 C21        131.9390   116.8580    40.6920 c3         1 N0C       0.082900
      7 C22        133.3280   118.6730    39.6490 c3         1 N0C       0.082900
      8 C23        134.0530   117.6130    41.7970 c3         1 N0C       0.082900
      9 C25        139.2210   113.3740    40.2920 cp         1 N0C       0.238500
     10 C01        138.4650   108.2640    35.8820 c3         1 N0C       0.084900
     11 C03        137.5450   105.9370    35.6830 c3         1 N0C       0.084900
     12 C04        135.9910   107.8940    35.8500 c3         1 N0C       0.084900
     13 C05        137.3200   107.1970    37.8700 c3         1 N0C       0.021600
     14 C06        138.5680   106.6390    38.5880 c          1 N0C       0.598100
     15 C10        138.9530   109.6830    40.3090 c3         1 N0C       0.079500
     16 C19        134.1920   116.2830    39.6620 c3         1 N0C       0.019600
     17 C27        140.2150   114.4010    40.7800 cp         1 N0C      -0.182500
     18 C28        139.9940   115.7960    40.5960 ca         1 N0C      -0.058500
     19 C29        140.9200   116.7500    41.0510 ca         1 N0C      -0.120000
     20 C30        142.0930   116.3410    41.7020 ca         1 N0C      -0.061000
     21 C31        142.3390   114.9740    41.8980 ca         1 N0C      -0.120000
     22 C32        141.4150   114.0170    41.4440 ca         1 N0C      -0.058500
     23 N02        137.3350   107.3200    36.3210 n4         1 N0C      -0.507000
     24 N08        139.4460   107.5680    39.1350 ns         1 N0C      -0.380300
     25 N09        139.2880   108.9940    39.0420 n7         1 N0C      -0.653400
     26 N15        135.8690   114.6070    38.0680 n2         1 N0C      -0.421300
     27 N16        134.6570   115.0370    37.5530 ns         1 N0C      -0.270900
     28 N20        133.3740   117.3560    40.4430 n4         1 N0C      -0.507000
     29 N24        138.1050   113.8220    39.6750 nb         1 N0C      -0.161000
     30 N26        139.5040   112.0700    40.5030 nb         1 N0C      -0.162000
     31 O07        138.7850   105.4400    38.6870 o          1 N0C      -0.533100
     32 O18        132.7140   116.2000    37.7160 o          1 N0C      -0.552100
     33 H1         136.7210   110.7960    39.0690 ha         1 N0C       0.119000
     34 H2         135.1770   112.6650    38.3870 h4         1 N0C      -0.002200
     35 H3         131.9720   115.9230    41.2550 hx         1 N0C       0.101700
     36 H4         131.3900   117.6090    41.2640 hx         1 N0C       0.101700
     37 H5         131.4390   116.6930    39.7360 hx         1 N0C       0.101700
     38 H6         132.7760   119.4210    40.2210 hx         1 N0C       0.101700
     39 H7         134.3470   119.0260    39.4730 hx         1 N0C       0.101700
     40 H8         132.8280   118.5050    38.6930 hx         1 N0C       0.101700
     41 H9         134.0830   116.6840    42.3710 hx         1 N0C       0.101700
     42 H10        135.0700   117.9740    41.6310 hx         1 N0C       0.101700
     43 H11        133.4850   118.3650    42.3500 hx         1 N0C       0.101700
     44 H12        139.4250   107.8540    36.2030 hx         1 N0C       0.098811
     45 H13        138.4530   108.3630    34.7940 hx         1 N0C       0.098811
     46 H14        138.3140   109.2430    36.3410 hx         1 N0C       0.098811
     47 H15        136.7390   105.2690    35.9950 hx         1 N0C       0.098811
     48 H16        137.5380   106.0350    34.5960 hx         1 N0C       0.098811
     49 H17        138.5040   105.5290    36.0080 hx         1 N0C       0.098811
     50 H18        135.1840   107.2250    36.1570 hx         1 N0C       0.098811
     51 H19        135.8410   108.8780    36.2980 hx         1 N0C       0.098811
     52 H20        135.9980   107.9840    34.7620 hx         1 N0C       0.098811
     53 H21        137.1360   108.1850    38.2910 hx         1 N0C       0.116200
     54 H22        136.4920   106.5460    38.1540 hx         1 N0C       0.116200
     55 H23        138.0840   109.2070    40.7850 h1         1 N0C       0.089700
     56 H24        139.7870   109.6110    41.0220 h1         1 N0C       0.089700
     57 H25        134.2110   115.3680    40.2550 hx         1 N0C       0.126200
     58 H26        135.2170   116.6420    39.5660 hx         1 N0C       0.126200
     59 H27        139.0960   116.1530    40.0950 ha         1 N0C       0.124000
     60 H28        140.7260   117.8090    40.8970 ha         1 N0C       0.126000
     61 H29        142.8090   117.0810    42.0540 ha         1 N0C       0.132000
     62 H30        143.2480   114.6540    42.4030 ha         1 N0C       0.126000
     63 H31        141.6420   112.9660    41.6150 ha         1 N0C       0.124000
     64 H32        140.2400   107.1520    39.6240 hn         1 N0C       0.353500
     65 H33        140.0830   109.4600    38.5660 hn         1 N0C       0.443000
     66 H34        134.3680   114.7880    36.6100 hn         1 N0C       0.339500
@<TRIPOS>BOND
     1     1     2 ar  
     2     1    15 1   
     3     1    30 ar  
     4     2     3 ar  
     5     2    33 1   
     6     3     4 1   
     7     3    29 ar  
     8     4    26 2   
     9     4    34 1   
    10     5    16 1   
    11     5    27 1   
    12     5    32 2   
    13     6    28 1   
    14     6    35 1   
    15     6    36 1   
    16     6    37 1   
    17     7    28 1   
    18     7    38 1   
    19     7    39 1   
    20     7    40 1   
    21     8    28 1   
    22     8    41 1   
    23     8    42 1   
    24     8    43 1   
    25     9    17 1   
    26     9    29 ar  
    27     9    30 ar  
    28    10    23 1   
    29    10    44 1   
    30    10    45 1   
    31    10    46 1   
    32    11    23 1   
    33    11    47 1   
    34    11    48 1   
    35    11    49 1   
    36    12    23 1   
    37    12    50 1   
    38    12    51 1   
    39    12    52 1   
    40    13    14 1   
    41    13    23 1   
    42    13    53 1   
    43    13    54 1   
    44    14    24 1   
    45    14    31 2   
    46    15    25 1   
    47    15    55 1   
    48    15    56 1   
    49    16    28 1   
    50    16    57 1   
    51    16    58 1   
    52    17    18 ar  
    53    17    22 ar  
    54    18    19 ar  
    55    18    59 1   
    56    19    20 ar  
    57    19    60 1   
    58    20    21 ar  
    59    20    61 1   
    60    21    22 ar  
    61    21    62 1   
    62    22    63 1   
    63    24    25 1   
    64    24    64 1   
    65    25    65 1   
    66    26    27 1   
    67    27    66 1   
@<TRIPOS>SUBSTRUCTURE
     1 N0C         1 TEMP              0 ****  ****    0 ROOT
