@<TRIPOS>MOLECULE
N0D
   19    19     1     0     0
SMALL
abcg2


@<TRIPOS>ATOM
      1 C8           1.7280     1.9440     0.0370 c3         1 N0D      -0.033800
      2 C2          -1.5990     0.0670    -0.0300 ca         1 N0D      -0.109300
      3 C3          -0.6400     1.0810    -0.0360 ca         1 N0D      -0.078000
      4 C4           0.7240     0.8300     0.0460 ca         1 N0D      -0.102300
      5 C5           1.1430    -0.5030     0.1360 ca         1 N0D       0.131100
      6 C6           0.2090    -1.5310     0.1390 ca         1 N0D      -0.200000
      7 C7          -1.1480    -1.2430     0.0570 ca         1 N0D      -0.073000
      8 O1           2.4740    -0.7300     0.2130 oh         1 N0D      -0.535100
      9 H1           2.3360     1.9480     0.9430 hc         1 N0D       0.042700
     10 H2           2.4160     1.8630    -0.8070 hc         1 N0D       0.042700
     11 H3           1.2330     2.9120    -0.0320 hc         1 N0D       0.042700
     12 H4          -3.4460     0.6920     0.8890 hc         1 N0D       0.039700
     13 H5          -3.2690     1.2100    -0.7790 hc         1 N0D       0.039700
     14 H6          -3.6500    -0.4710    -0.4120 hc         1 N0D       0.039700
     15 H7          -0.9680     2.1130    -0.1110 ha         1 N0D       0.111000
     16 H8           0.5370    -2.5620     0.2050 ha         1 N0D       0.111000
     17 H9          -1.8590    -2.0610     0.0600 ha         1 N0D       0.110000
     18 H10          2.6460    -1.6760     0.2740 ho         1 N0D       0.461000
     19 C1          -3.0650     0.3900    -0.0890 c3         1 N0D      -0.039800
@<TRIPOS>BOND
     1     1     4 1   
     2     1     9 1   
     3     1    10 1   
     4     1    11 1   
     5     2     3 ar  
     6     2     7 ar  
     7     2    19 1   
     8     3     4 ar  
     9     3    15 1   
    10     4     5 ar  
    11     5     6 ar  
    12     5     8 1   
    13     6     7 ar  
    14     6    16 1   
    15     7    17 1   
    16     8    18 1   
    17    12    19 1   
    18    13    19 1   
    19    14    19 1   
@<TRIPOS>SUBSTRUCTURE
     1 N0D         1 TEMP              0 ****  ****    0 ROOT
