@<TRIPOS>MOLECULE
N0D
   19    19     1     0     0
SMALL
No Charge or Current Charge


@<TRIPOS>ATOM
      1 C8           1.7400     1.9880     0.0190 c3         1 N0D      -0.033800
      2 C2          -1.5890     0.0730    -0.0170 ca         1 N0D      -0.109300
      3 C3          -0.6460     1.1170    -0.0340 ca         1 N0D      -0.078000
      4 C4           0.7350     0.8410     0.0410 ca         1 N0D      -0.102300
      5 C5           1.1650    -0.5000     0.1380 ca         1 N0D       0.131100
      6 C6           0.2260    -1.5440     0.1580 ca         1 N0D      -0.200000
      7 C7          -1.1480    -1.2590     0.0820 ca         1 N0D      -0.073000
      8 O1           2.4950    -0.8000     0.2130 oh         1 N0D      -0.535100
      9 H1           2.3450     1.9980     0.9340 hc         1 N0D       0.042700
     10 H2           2.4230     1.8960    -0.8340 hc         1 N0D       0.042700
     11 H3           1.2460     2.9640    -0.0590 hc         1 N0D       0.042700
     12 H4          -3.4930     0.5560     0.9040 hc         1 N0D       0.039700
     13 H5          -3.2660     1.2810    -0.6970 hc         1 N0D       0.039700
     14 H6          -3.6350    -0.4420    -0.5530 hc         1 N0D       0.039700
     15 H7          -0.9880     2.1480    -0.1070 ha         1 N0D       0.111000
     16 H8           0.5520    -2.5780     0.2340 ha         1 N0D       0.111000
     17 H9          -1.8690    -2.0740     0.1010 ha         1 N0D       0.110000
     18 H10          2.5880    -1.7750     0.2740 ho         1 N0D       0.461000
     19 C1          -3.0770     0.3840    -0.0960 c3         1 N0D      -0.039800
@<TRIPOS>BOND
     1     1     4 1   
     2     1     9 1   
     3     1    10 1   
     4     1    11 1   
     5     2     3 ar  
     6     2     7 ar  
     7     2    19 1   
     8     3     4 ar  
     9     3    15 1   
    10     4     5 ar  
    11     5     6 ar  
    12     5     8 1   
    13     6     7 ar  
    14     6    16 1   
    15     7    17 1   
    16     8    18 1   
    17    12    19 1   
    18    13    19 1   
    19    14    19 1   
@<TRIPOS>SUBSTRUCTURE
     1 N0D         1 TEMP              0 ****  ****    0 ROOT
