@<TRIPOS>MOLECULE
N0E
   33    34     1     0     0
SMALL
abcg2


@<TRIPOS>ATOM
      1 N1          -9.8670    -6.6790    91.9920 ns         1 N0E      -0.144000
      2 C4          -9.3630   -11.4610    92.5810 ca         1 N0E      -0.086300
      3 C5          -8.0030   -11.6870    92.3750 ca         1 N0E      -0.106500
      4 C6          -7.5550   -12.8800    91.8250 ca         1 N0E      -0.109500
      5 C7          -9.8480   -10.1510    93.1360 c3         1 N0E      -0.021100
      6 C8          -9.9180    -9.0840    92.0440 c3         1 N0E      -0.158400
      7 C10        -10.1380    -5.3160    92.1830 ca         1 N0E      -0.057000
      8 C13        -10.5220    -2.5440    92.4230 ca         1 N0E       0.114100
      9 C15         -9.2860    -4.4100    91.5470 ca         1 N0E      -0.109500
     10 C1          -8.4640   -13.8700    91.4700 ca         1 N0E      -0.109000
     11 C2          -9.8210   -13.6560    91.6710 ca         1 N0E      -0.109500
     12 C3         -10.2640   -12.4600    92.2210 ca         1 N0E      -0.106500
     13 C9         -10.4530    -7.7620    92.5540 c          1 N0E       0.605100
     14 O1         -11.3480    -7.7020    93.3810 o          1 N0E      -0.587100
     15 C11        -11.1900    -4.8110    92.9440 ca         1 N0E      -0.109500
     16 C12        -11.3740    -3.4390    93.0580 ca         1 N0E      -0.148500
     17 C14         -9.4700    -3.0450    91.6600 ca         1 N0E      -0.148500
     18 O2         -10.6640    -1.2030    92.5060 oh         1 N0E      -0.534100
     19 H1          -9.1140    -6.8690    91.3490 hn         1 N0E       0.148000
     20 H2          -7.2850   -10.9230    92.6520 ha         1 N0E       0.111500
     21 H3          -6.4950   -13.0400    91.6750 ha         1 N0E       0.112500
     22 H4          -9.1800    -9.8120    93.9320 hc         1 N0E       0.063200
     23 H5         -10.8350   -10.2810    93.5840 hc         1 N0E       0.063200
     24 H6         -10.5870    -9.4220    91.2460 hc         1 N0E       0.061700
     25 H7          -8.9350    -8.9580    91.5840 hc         1 N0E       0.061700
     26 H8          -8.4580    -4.7780    90.9520 ha         1 N0E       0.129000
     27 H9          -8.1160   -14.8010    91.0430 ha         1 N0E       0.113000
     28 H10        -10.5370   -14.4220    91.4020 ha         1 N0E       0.112500
     29 H11        -11.3250   -12.3010    92.3770 ha         1 N0E       0.111500
     30 H12        -11.8750    -5.4690    93.4520 ha         1 N0E       0.129000
     31 H13        -12.2030    -3.0720    93.6540 ha         1 N0E       0.122000
     32 H14         -8.7940    -2.3660    91.1560 ha         1 N0E       0.122000
     33 H15        -11.4190    -0.9820    93.0610 ho         1 N0E       0.464000
@<TRIPOS>BOND
     1     1     7 1   
     2     1    13 1   
     3     1    19 1   
     4     2     3 ar  
     5     2     5 1   
     6     2    12 ar  
     7     3     4 ar  
     8     3    20 1   
     9     4    10 ar  
    10     4    21 1   
    11     5     6 1   
    12     5    22 1   
    13     5    23 1   
    14     6    13 1   
    15     6    24 1   
    16     6    25 1   
    17     7     9 ar  
    18     7    15 ar  
    19     8    16 ar  
    20     8    17 ar  
    21     8    18 1   
    22     9    17 ar  
    23     9    26 1   
    24    10    11 ar  
    25    10    27 1   
    26    11    12 ar  
    27    11    28 1   
    28    12    29 1   
    29    13    14 2   
    30    15    16 ar  
    31    15    30 1   
    32    16    31 1   
    33    17    32 1   
    34    18    33 1   
@<TRIPOS>SUBSTRUCTURE
     1 N0E         1 TEMP              0 ****  ****    0 ROOT
