@<TRIPOS>MOLECULE
N0E
   33    34     1     0     0
SMALL
No Charge or Current Charge


@<TRIPOS>ATOM
      1 N1         -10.0800    -6.7480    91.9250 ns         1 N0E      -0.144000
      2 C4          -9.3080   -11.3770    92.5100 ca         1 N0E      -0.086300
      3 C5          -7.9370   -11.5180    92.2200 ca         1 N0E      -0.106500
      4 C6          -7.4240   -12.7570    91.7990 ca         1 N0E      -0.109500
      5 C7          -9.8650   -10.0330    92.9600 c3         1 N0E      -0.021100
      6 C8         -10.3560    -9.1830    91.7660 c3         1 N0E      -0.158400
      7 C10        -10.1990    -5.3500    92.1700 ca         1 N0E      -0.057000
      8 C13        -10.3020    -2.5550    92.5820 ca         1 N0E       0.114100
      9 C15         -9.1990    -4.5090    91.6420 ca         1 N0E      -0.109500
     10 C1          -8.2800   -13.8640    91.6660 ca         1 N0E      -0.109000
     11 C2          -9.6490   -13.7290    91.9510 ca         1 N0E      -0.109500
     12 C3         -10.1620   -12.4890    92.3720 ca         1 N0E      -0.106500
     13 C9         -10.9030    -7.8270    92.2270 c          1 N0E       0.605100
     14 O1         -11.9930    -7.7350    92.7820 o          1 N0E      -0.587100
     15 C11        -11.2540    -4.7730    92.9130 ca         1 N0E      -0.109500
     16 C12        -11.3030    -3.3820    93.1160 ca         1 N0E      -0.148500
     17 C14         -9.2510    -3.1190    91.8460 ca         1 N0E      -0.148500
     18 O2         -10.3440    -1.2060    92.7750 oh         1 N0E      -0.534100
     19 H1          -9.2280    -7.0050    91.4440 hn         1 N0E       0.148000
     20 H2          -7.2670   -10.6660    92.3180 ha         1 N0E       0.111500
     21 H3          -6.3640   -12.8600    91.5770 ha         1 N0E       0.112500
     22 H4          -9.0990    -9.4740    93.5120 hc         1 N0E       0.063200
     23 H5         -10.6940   -10.1870    93.6620 hc         1 N0E       0.063200
     24 H6         -11.1570    -9.7320    91.2580 hc         1 N0E       0.061700
     25 H7          -9.5140    -9.0370    91.0770 hc         1 N0E       0.061700
     26 H8          -8.3770    -4.9340    91.0690 ha         1 N0E       0.129000
     27 H9          -7.8830   -14.8230    91.3400 ha         1 N0E       0.113000
     28 H10        -10.3130   -14.5850    91.8470 ha         1 N0E       0.112500
     29 H11        -11.2230   -12.3930    92.5890 ha         1 N0E       0.111500
     30 H12        -12.0420    -5.3820    93.3460 ha         1 N0E       0.129000
     31 H13        -12.1220    -2.9540    93.6910 ha         1 N0E       0.122000
     32 H14         -8.4740    -2.4810    91.4330 ha         1 N0E       0.122000
     33 H15        -11.1410    -0.9910    93.3060 ho         1 N0E       0.464000
@<TRIPOS>BOND
     1     1     7 1   
     2     1    13 1   
     3     1    19 1   
     4     2     3 ar  
     5     2     5 1   
     6     2    12 ar  
     7     3     4 ar  
     8     3    20 1   
     9     4    10 ar  
    10     4    21 1   
    11     5     6 1   
    12     5    22 1   
    13     5    23 1   
    14     6    13 1   
    15     6    24 1   
    16     6    25 1   
    17     7     9 ar  
    18     7    15 ar  
    19     8    16 ar  
    20     8    17 ar  
    21     8    18 1   
    22     9    17 ar  
    23     9    26 1   
    24    10    11 ar  
    25    10    27 1   
    26    11    12 ar  
    27    11    28 1   
    28    12    29 1   
    29    13    14 2   
    30    15    16 ar  
    31    15    30 1   
    32    16    31 1   
    33    17    32 1   
    34    18    33 1   
@<TRIPOS>SUBSTRUCTURE
     1 N0E         1 TEMP              0 ****  ****    0 ROOT
