@<TRIPOS>MOLECULE
N0F
   47    49     1     0     0
SMALL
abcg2


@<TRIPOS>ATOM
      1 N1           7.8780    -0.6150    20.8390 ns         1 N0F      -0.144000
      2 C4           7.4280     1.2280    19.2760 ca         1 N0F       0.322900
      3 C5           6.9920     0.2090    20.1270 ca         1 N0F      -0.070000
      4 C6           9.1630    -0.3530    21.2160 c          1 N0F       0.621100
      5 C7           9.8110    -1.4360    22.0550 c3         1 N0F      -0.146400
      6 C8          10.2130    -0.8690    23.4240 c3         1 N0F       0.262800
      7 C10          8.2250     1.4640    25.6270 c6         1 N0F      -0.093400
      8 C13          8.0260    -1.2070    24.5550 c6         1 N0F       0.176300
      9 C15         10.6070    -3.2440    24.4640 cc         1 N0F      -0.126000
     10 C17         12.1320    -1.5630    24.9210 cd         1 N0F      -0.226000
     11 O            9.7630     0.6720    20.9160 o          1 N0F      -0.583100
     12 N            6.5960     2.0100    18.5850 nb         1 N0F      -0.646000
     13 C3           5.2850     1.7960    18.7140 ca         1 N0F       0.309900
     14 C2           4.7630     0.7990    19.5250 ca         1 N0F      -0.140000
     15 C1           5.6120    -0.0230    20.2560 ca         1 N0F      -0.092300
     16 C            5.0740    -1.1060    21.1440 c3         1 N0F      -0.052800
     17 C14         10.9820    -1.8790    24.2490 cc         1 N0F      -0.144300
     18 S           12.7590    -2.9000    25.8050 ss         1 N0F       0.200000
     19 C16         11.4710    -3.9150    25.2800 cd         1 N0F      -0.238000
     20 N2           9.0510    -0.2700    24.0980 n3         1 N0F      -0.736600
     21 C12          6.7700    -0.4530    24.9820 c6         1 N0F      -0.093400
     22 C11          7.0980     0.5440    26.0790 c6         1 N0F       0.170300
     23 O1           5.9020     1.2690    26.3960 oh         1 N0F      -0.664000
     24 C9           9.4310     0.6510    25.1660 c6         1 N0F       0.176300
     25 H1           7.4880    -1.4740    21.1920 hn         1 N0F       0.148000
     26 H2           8.4850     1.4110    19.1590 h4         1 N0F       0.049100
     27 H3           9.1630    -2.3050    22.1570 hc         1 N0F       0.064700
     28 H4          10.7150    -1.7630    21.5370 hc         1 N0F       0.064700
     29 H5          10.8890    -0.0350    23.2270 h1         1 N0F       0.082700
     30 H7           7.8640     2.0850    24.8020 hc         1 N0F       0.057950
     31 H8           7.7790    -1.8980    23.7510 h1         1 N0F       0.033450
     32 H9           8.3880    -1.8140    25.4000 h1         1 N0F       0.033450
     33 H10          9.7340    -3.7070    24.0280 ha         1 N0F       0.130000
     34 H11         12.6430    -0.6140    24.9360 h4         1 N0F       0.152000
     35 H12          4.6260     2.4420    18.1440 h4         1 N0F       0.020100
     36 H13          3.6910     0.6620    19.5930 ha         1 N0F       0.120000
     37 H14          5.3940    -2.0960    20.8030 hc         1 N0F       0.045700
     38 H15          5.4290    -0.9870    22.1710 hc         1 N0F       0.045700
     39 H16          3.9860    -1.0890    21.1510 hc         1 N0F       0.045700
     40 H17         11.4240    -4.9440    25.6000 h4         1 N0F       0.152000
     41 H19          6.3580     0.0860    24.1240 hc         1 N0F       0.057950
     42 H20          6.0150    -1.1620    25.3300 hc         1 N0F       0.057950
     43 H21          7.4300    -0.0090    26.9680 h1         1 N0F       0.026700
     44 H22          6.1100     1.8980    27.0990 ho         1 N0F       0.441000
     45 H23          9.8620     0.1120    26.0260 h1         1 N0F       0.033450
     46 H24         10.2070     1.3190    24.7860 h1         1 N0F       0.033450
     47 H6           8.5190     2.1270    26.4450 hc         1 N0F       0.057950
@<TRIPOS>BOND
     1     1     3 1   
     2     1     4 1   
     3     1    25 1   
     4     2     3 ar  
     5     2    12 ar  
     6     2    26 1   
     7     3    15 ar  
     8     4     5 1   
     9     4    11 2   
    10     5     6 1   
    11     5    27 1   
    12     5    28 1   
    13     6    17 1   
    14     6    20 1   
    15     6    29 1   
    16     7    22 1   
    17     7    24 1   
    18     7    30 1   
    19     7    47 1   
    20     8    20 1   
    21     8    21 1   
    22     8    31 1   
    23     8    32 1   
    24     9    17 1   
    25     9    19 2   
    26     9    33 1   
    27    10    17 2   
    28    10    18 1   
    29    10    34 1   
    30    12    13 ar  
    31    13    14 ar  
    32    13    35 1   
    33    14    15 ar  
    34    14    36 1   
    35    15    16 1   
    36    16    37 1   
    37    16    38 1   
    38    16    39 1   
    39    18    19 1   
    40    19    40 1   
    41    20    24 1   
    42    21    22 1   
    43    21    41 1   
    44    21    42 1   
    45    22    23 1   
    46    22    43 1   
    47    23    44 1   
    48    24    45 1   
    49    24    46 1   
@<TRIPOS>SUBSTRUCTURE
     1 N0F         1 TEMP              0 ****  ****    0 ROOT
