@<TRIPOS>MOLECULE
N0F
   47    49     1     0     0
SMALL
No Charge or Current Charge


@<TRIPOS>ATOM
      1 N1           7.9190    -0.5190    20.9360 ns         1 N0F      -0.144000
      2 C4           7.3650     1.4030    19.4320 ca         1 N0F       0.322900
      3 C5           6.9870     0.2710    20.2000 ca         1 N0F      -0.070000
      4 C6           9.2970    -0.4400    21.0860 c          1 N0F       0.621100
      5 C7           9.8910    -1.5080    22.0000 c3         1 N0F      -0.146400
      6 C8          10.2340    -0.8880    23.3690 c3         1 N0F       0.262800
      7 C10          8.2670     1.4950    25.6530 c6         1 N0F      -0.093400
      8 C13          7.9720    -1.1640    24.4500 c6         1 N0F       0.176300
      9 C15         10.5550    -3.1960    24.5020 cc         1 N0F      -0.126000
     10 C17         12.1230    -1.5600    24.9790 cd         1 N0F      -0.226000
     11 O           10.0050     0.3840    20.5160 o          1 N0F      -0.583100
     12 N            6.4840     2.1600    18.7340 nb         1 N0F      -0.646000
     13 C3           5.1790     1.8120    18.7810 ca         1 N0F       0.309900
     14 C2           4.7100     0.7120    19.5160 ca         1 N0F      -0.140000
     15 C1           5.6180    -0.0800    20.2430 ca         1 N0F      -0.092300
     16 C            5.1190    -1.2760    21.0470 c3         1 N0F      -0.052800
     17 C14         10.9750    -1.8530    24.2800 cc         1 N0F      -0.144300
     18 S           12.7040    -2.9330    25.9350 ss         1 N0F       0.200000
     19 C16         11.3540    -3.9130    25.3520 cd         1 N0F      -0.238000
     20 N2           9.0640    -0.2380    24.0250 n3         1 N0F      -0.736600
     21 C12          6.7340    -0.3790    24.9350 c6         1 N0F      -0.093400
     22 C11          7.1110     0.5700    26.0910 c6         1 N0F       0.170300
     23 O1           5.9730     1.3460    26.4830 oh         1 N0F      -0.664000
     24 C9           9.4650     0.6650    25.1400 c6         1 N0F       0.176300
     25 H1           7.4900    -1.2650    21.4680 hn         1 N0F       0.148000
     26 H2           8.3990     1.7300    19.3620 h4         1 N0F       0.049100
     27 H3           9.1830    -2.3320    22.1320 hc         1 N0F       0.064700
     28 H4          10.8190    -1.8820    21.5530 hc         1 N0F       0.064700
     29 H5          10.9590    -0.0930    23.1390 h1         1 N0F       0.082700
     30 H7           7.9270     2.1720    24.8570 hc         1 N0F       0.057950
     31 H8           7.6580    -1.8150    23.6230 h1         1 N0F       0.033450
     32 H9           8.3170    -1.8170    25.2650 h1         1 N0F       0.033450
     33 H10          9.6680    -3.6140    24.0350 ha         1 N0F       0.130000
     34 H11         12.6680    -0.6250    25.0000 h4         1 N0F       0.152000
     35 H12          4.4900     2.4350    18.2130 h4         1 N0F       0.020100
     36 H13          3.6470     0.4840    19.5150 ha         1 N0F       0.120000
     37 H14          5.5850    -2.2070    20.7020 hc         1 N0F       0.045700
     38 H15          5.3470    -1.1590    22.1130 hc         1 N0F       0.045700
     39 H16          4.0330    -1.4010    20.9570 hc         1 N0F       0.045700
     40 H17         11.2440    -4.9410    25.6750 h4         1 N0F       0.152000
     41 H19          6.3140     0.1950    24.0980 hc         1 N0F       0.057950
     42 H20          5.9560    -1.0810    25.2620 hc         1 N0F       0.057950
     43 H21          7.4550    -0.0390    26.9410 h1         1 N0F       0.026700
     44 H22          6.2480     1.8760    27.2630 ho         1 N0F       0.441000
     45 H23          9.8800     0.0810    25.9750 h1         1 N0F       0.033450
     46 H24         10.2520     1.3570    24.8060 h1         1 N0F       0.033450
     47 H6           8.5900     2.1250    26.4920 hc         1 N0F       0.057950
@<TRIPOS>BOND
     1     1     3 1   
     2     1     4 1   
     3     1    25 1   
     4     2     3 ar  
     5     2    12 ar  
     6     2    26 1   
     7     3    15 ar  
     8     4     5 1   
     9     4    11 2   
    10     5     6 1   
    11     5    27 1   
    12     5    28 1   
    13     6    17 1   
    14     6    20 1   
    15     6    29 1   
    16     7    22 1   
    17     7    24 1   
    18     7    30 1   
    19     7    47 1   
    20     8    20 1   
    21     8    21 1   
    22     8    31 1   
    23     8    32 1   
    24     9    17 1   
    25     9    19 2   
    26     9    33 1   
    27    10    17 2   
    28    10    18 1   
    29    10    34 1   
    30    12    13 ar  
    31    13    14 ar  
    32    13    35 1   
    33    14    15 ar  
    34    14    36 1   
    35    15    16 1   
    36    16    37 1   
    37    16    38 1   
    38    16    39 1   
    39    18    19 1   
    40    19    40 1   
    41    20    24 1   
    42    21    22 1   
    43    21    41 1   
    44    21    42 1   
    45    22    23 1   
    46    22    43 1   
    47    23    44 1   
    48    24    45 1   
    49    24    46 1   
@<TRIPOS>SUBSTRUCTURE
     1 N0F         1 TEMP              0 ****  ****    0 ROOT
