@<TRIPOS>MOLECULE
N0G
   52    55     1     0     0
SMALL
No Charge or Current Charge


@<TRIPOS>ATOM
      1 N1          59.8610    19.4450    13.1000 ne         1 N0G      -0.608100
      2 C4          56.6660    23.2160     9.6690 ca         1 N0G      -0.079000
      3 C5          56.8810    21.9800    10.3080 ca         1 N0G      -0.066000
      4 C6          58.1730    21.6260    10.7730 ca         1 N0G       0.033000
      5 C7          55.7990    21.1030    10.4860 ca         1 N0G      -0.042000
      6 C8          55.9920    19.8800    11.1390 ca         1 N0G      -0.137000
      7 C10         58.3740    20.3740    11.4170 ca         1 N0G      -0.305900
      8 C13         60.0710    17.3290    14.3800 ca         1 N0G      -0.154600
      9 C15         61.8680    15.7720    13.7550 ca         1 N0G      -0.123000
     10 C17         61.6460    17.8770    12.5780 ca         1 N0G      -0.123000
     11 C20         56.4510    20.3730    15.2020 ca         1 N0G      -0.089300
     12 C21         57.5240    19.7930    17.4400 c3         1 N0G      -0.105100
     13 C22         57.1310    21.5400    14.7900 ca         1 N0G      -0.108500
     14 C24         55.1380    22.3170    13.6290 ca         1 N0G      -0.110000
     15 C26         55.1080    20.1900    14.8160 ca         1 N0G      -0.108500
     16 C1          59.2320    22.5480    10.5930 ca         1 N0G      -0.117000
     17 C2          59.0100    23.7810     9.9570 ca         1 N0G      -0.089000
     18 C3          57.7290    24.1150     9.4930 ca         1 N0G      -0.119000
     19 C9          57.2610    19.5250    11.6110 ca         1 N0G       0.186100
     20 O1          57.4090    18.3260    12.2320 oh         1 N0G      -0.534100
     21 C11         59.7100    19.9900    11.9200 cf         1 N0G       0.529800
     22 C12         60.5180    18.2210    13.3550 ca         1 N0G       0.143400
     23 C14         60.7600    16.1030    14.5490 ca         1 N0G      -0.056000
     24 C16         62.3160    16.6620    12.7730 ca         1 N0G      -0.079000
     25 N2          58.3580    18.8620    15.3090 ns         1 N0G      -0.499900
     26 O2          58.4320    16.7290    16.0400 o          1 N0G      -0.597100
     27 C19         57.1670    19.3020    16.0240 c3         1 N0G       0.154000
     28 C23         56.4780    22.5050    14.0050 ca         1 N0G      -0.110000
     29 C25         54.4530    21.1600    14.0350 ca         1 N0G      -0.110000
     30 H2          55.6740    23.4850     9.3120 ha         1 N0G       0.112000
     31 H3          54.8060    21.3720    10.1310 ha         1 N0G       0.118000
     32 H4          55.1520    19.2080    11.2880 ha         1 N0G       0.132000
     33 H5          62.3840    14.8260    13.9080 ha         1 N0G       0.120000
     34 H6          62.0170    18.5530    11.8130 ha         1 N0G       0.122000
     35 H7          56.6200    20.1180    17.9700 hc         1 N0G       0.044367
     36 H8          57.9900    18.9890    18.0210 hc         1 N0G       0.044367
     37 H9          58.2210    20.6380    17.3990 hc         1 N0G       0.044367
     38 H10         58.1710    21.6970    15.0700 ha         1 N0G       0.115000
     39 H11         54.6340    23.0620    13.0180 ha         1 N0G       0.114000
     40 H12         54.5690    19.2940    15.1160 ha         1 N0G       0.115000
     41 H13         60.2370    22.3360    10.9470 ha         1 N0G       0.118000
     42 H14         59.8330    24.4810     9.8260 ha         1 N0G       0.113000
     43 H15         57.5590    25.0700     9.0010 ha         1 N0G       0.113000
     44 H16         58.2820    18.3580    12.6810 ho         1 N0G       0.469000
     45 H17         60.5620    20.1870    11.2640 h4         1 N0G       0.029800
     46 H19         60.4440    15.3960    15.3140 ha         1 N0G       0.131000
     47 H20         63.1810    16.4110    12.1630 ha         1 N0G       0.118000
     48 H21         58.8100    19.5230    14.6870 hn         1 N0G       0.320500
     49 H22         56.4930    18.4390    16.1280 h1         1 N0G       0.090700
     50 H23         57.0120    23.3960    13.6830 ha         1 N0G       0.114000
     51 H24         53.4170    21.0100    13.7400 ha         1 N0G       0.114000
     52 C18         58.8970    17.5990    15.3170 c          1 N0G       0.612700
@<TRIPOS>BOND
     1     1    21 2   
     2     1    22 1   
     3     2     3 ar  
     4     2    18 ar  
     5     2    30 1   
     6     3     4 ar  
     7     3     5 ar  
     8     4     7 ar  
     9     4    16 ar  
    10     5     6 ar  
    11     5    31 1   
    12     6    19 ar  
    13     6    32 1   
    14     7    19 ar  
    15     7    21 1   
    16     8    22 ar  
    17     8    23 ar  
    18     8    52 1   
    19     9    23 ar  
    20     9    24 ar  
    21     9    33 1   
    22    10    22 ar  
    23    10    24 ar  
    24    10    34 1   
    25    11    13 ar  
    26    11    15 ar  
    27    11    27 1   
    28    12    27 1   
    29    12    35 1   
    30    12    36 1   
    31    12    37 1   
    32    13    28 ar  
    33    13    38 1   
    34    14    28 ar  
    35    14    29 ar  
    36    14    39 1   
    37    15    29 ar  
    38    15    40 1   
    39    16    17 ar  
    40    16    41 1   
    41    17    18 ar  
    42    17    42 1   
    43    18    43 1   
    44    19    20 1   
    45    20    44 1   
    46    21    45 1   
    47    23    46 1   
    48    24    47 1   
    49    25    27 1   
    50    25    48 1   
    51    25    52 1   
    52    26    52 2   
    53    27    49 1   
    54    28    50 1   
    55    29    51 1   
@<TRIPOS>SUBSTRUCTURE
     1 N0G         1 TEMP              0 ****  ****    0 ROOT
