@<TRIPOS>MOLECULE
N0G
   52    55     1     0     0
SMALL
abcg2


@<TRIPOS>ATOM
      1 N1          60.5190    19.7480    12.8880 ne         1 N0G      -0.608100
      2 C4          55.1820    20.1060    10.1670 ca         1 N0G      -0.079000
      3 C5          56.4950    19.5850    10.2090 ca         1 N0G      -0.066000
      4 C6          57.4720    20.2040    11.0430 ca         1 N0G       0.033000
      5 C7          56.8670    18.4510     9.4450 ca         1 N0G      -0.042000
      6 C8          58.1400    17.9630     9.4860 ca         1 N0G      -0.137000
      7 C10         58.7930    19.6540    11.1140 ca         1 N0G      -0.305900
      8 C13         59.2010    17.8550    13.7900 ca         1 N0G      -0.154600
      9 C15         60.2570    15.6730    13.9120 ca         1 N0G      -0.123000
     10 C17         61.5010    17.5650    13.0990 ca         1 N0G      -0.123000
     11 C20         57.4520    22.1260    15.1090 ca         1 N0G      -0.089300
     12 C21         56.9370    20.3620    16.8310 c3         1 N0G      -0.105100
     13 C22         58.7400    22.6340    14.9480 ca         1 N0G      -0.108500
     14 C24         57.8690    24.8720    14.7160 ca         1 N0G      -0.110000
     15 C26         56.3770    23.0160    15.0780 ca         1 N0G      -0.108500
     16 C1          57.0810    21.3290    11.8060 ca         1 N0G      -0.117000
     17 C2          55.7990    21.8180    11.7380 ca         1 N0G      -0.089000
     18 C3          54.8350    21.2030    10.9160 ca         1 N0G      -0.119000
     19 C9          59.1140    18.5710    10.3110 ca         1 N0G       0.186100
     20 O1          60.3550    18.0310    10.2140 oh         1 N0G      -0.534100
     21 C11         59.7920    20.2960    11.9950 cf         1 N0G       0.529800
     22 C12         60.3830    18.3920    13.2460 ca         1 N0G       0.143400
     23 C14         59.1550    16.4940    14.0980 ca         1 N0G      -0.056000
     24 C16         61.4380    16.2180    13.4190 ca         1 N0G      -0.079000
     25 N2          58.2140    19.7980    14.8100 ns         1 N0G      -0.499900
     26 O2          56.8500    18.2580    13.8420 o          1 N0G      -0.597100
     27 C19         57.1650    20.6550    15.3420 c3         1 N0G       0.154000
     28 C23         58.9470    23.9960    14.7500 ca         1 N0G      -0.110000
     29 C25         56.5790    24.3760    14.8830 ca         1 N0G      -0.110000
     30 H2          54.4530    19.6160     9.5330 ha         1 N0G       0.112000
     31 H3          56.1240    17.9790     8.8140 ha         1 N0G       0.118000
     32 H4          58.4380    17.1130     8.8870 ha         1 N0G       0.132000
     33 H5          60.2000    14.6230    14.1660 ha         1 N0G       0.120000
     34 H6          62.4140    17.9960    12.7070 ha         1 N0G       0.122000
     35 H7          56.1280    20.9810    17.2200 hc         1 N0G       0.044367
     36 H8          56.6750    19.3120    16.9690 hc         1 N0G       0.044367
     37 H9          57.8430    20.5780    17.4020 hc         1 N0G       0.044367
     38 H10         59.5990    21.9760    14.9540 ha         1 N0G       0.115000
     39 H11         58.0300    25.9310    14.5560 ha         1 N0G       0.114000
     40 H12         55.3690    22.6330    15.1920 ha         1 N0G       0.115000
     41 H13         57.7890    21.8060    12.4660 ha         1 N0G       0.118000
     42 H14         55.5260    22.6780    12.3350 ha         1 N0G       0.113000
     43 H15         53.8260    21.5940    10.8800 ha         1 N0G       0.113000
     44 H16         61.0020    18.5290    10.7330 ho         1 N0G       0.469000
     45 H17         59.9200    21.3710    11.8720 h4         1 N0G       0.029800
     46 H19         58.2370    16.0910    14.5060 ha         1 N0G       0.131000
     47 H20         62.3130    15.5950    13.2840 ha         1 N0G       0.118000
     48 H21         59.1620    19.9720    15.1040 hn         1 N0G       0.320500
     49 H22         56.2620    20.3940    14.7920 h1         1 N0G       0.090700
     50 H23         59.9550    24.3700    14.6180 ha         1 N0G       0.114000
     51 H24         55.7290    25.0470    14.8510 ha         1 N0G       0.114000
     52 C18         57.9790    18.6600    14.1280 c          1 N0G       0.612700
@<TRIPOS>BOND
     1     1    21 2   
     2     1    22 1   
     3     2     3 ar  
     4     2    18 ar  
     5     2    30 1   
     6     3     4 ar  
     7     3     5 ar  
     8     4     7 ar  
     9     4    16 ar  
    10     5     6 ar  
    11     5    31 1   
    12     6    19 ar  
    13     6    32 1   
    14     7    19 ar  
    15     7    21 1   
    16     8    22 ar  
    17     8    23 ar  
    18     8    52 1   
    19     9    23 ar  
    20     9    24 ar  
    21     9    33 1   
    22    10    22 ar  
    23    10    24 ar  
    24    10    34 1   
    25    11    13 ar  
    26    11    15 ar  
    27    11    27 1   
    28    12    27 1   
    29    12    35 1   
    30    12    36 1   
    31    12    37 1   
    32    13    28 ar  
    33    13    38 1   
    34    14    28 ar  
    35    14    29 ar  
    36    14    39 1   
    37    15    29 ar  
    38    15    40 1   
    39    16    17 ar  
    40    16    41 1   
    41    17    18 ar  
    42    17    42 1   
    43    18    43 1   
    44    19    20 1   
    45    20    44 1   
    46    21    45 1   
    47    23    46 1   
    48    24    47 1   
    49    25    27 1   
    50    25    48 1   
    51    25    52 1   
    52    26    52 2   
    53    27    49 1   
    54    28    50 1   
    55    29    51 1   
@<TRIPOS>SUBSTRUCTURE
     1 N0G         1 TEMP              0 ****  ****    0 ROOT
