@<TRIPOS>MOLECULE
N0H
   31    32     1     0     0
SMALL
bcc


@<TRIPOS>ATOM
      1 N1          27.5460     2.7260   101.3010 ns         1 N0H      -0.493100
      2 C4          30.8220     0.9860   103.3030 ca         1 N0H       0.145100
      3 C5          31.2180     1.2230   101.9900 ca         1 N0H      -0.182000
      4 C6          32.5740     1.2770   101.6820 ca         1 N0H      -0.094000
      5 C7          28.5100     1.0380   102.7710 c3         1 N0H       0.057400
      6 C8          28.3270     2.5020   102.3780 c          1 N0H       0.649100
      7 C10         27.3310     1.3470    99.3100 ca         1 N0H      -0.093000
      8 C13         25.0020     0.2220   100.3050 ca         1 N0H      -0.219000
      9 C1          33.5370     1.1000   102.6620 ca         1 N0H      -0.165000
     10 C2          33.1320     0.8660   103.9720 ca         1 N0H      -0.094000
     11 C3          31.7870     0.8070   104.2950 ca         1 N0H      -0.182000
     12 O1          29.5350     0.8900   103.7130 os         1 N0H      -0.296900
     13 O2          28.8580     3.3980   103.0060 o          1 N0H      -0.569100
     14 C9          26.8590     1.7370   100.5560 ca         1 N0H      -0.004400
     15 C11         26.6530     0.4020    98.5560 ca         1 N0H      -0.158000
     16 C12         25.4880    -0.1590    99.0640 ca         1 N0H      -0.080000
     17 C14         25.6790     1.1780   101.0580 ca         1 N0H       0.133100
     18 O3          25.2570     1.5920   102.2640 oh         1 N0H      -0.484100
     19 H1          27.3990     3.6950   101.0490 hn         1 N0H       0.329500
     20 H2          30.5030     1.3660   101.1910 ha         1 N0H       0.137000
     21 H3          32.8690     1.4640   100.6580 ha         1 N0H       0.128000
     22 H4          27.5980     0.6920   103.2610 h1         1 N0H       0.074200
     23 H5          28.6600     0.3980   101.8950 h1         1 N0H       0.074200
     24 H6          28.2430     1.7970    98.9380 ha         1 N0H       0.144000
     25 H7          24.0890    -0.2190   100.6870 ha         1 N0H       0.137000
     26 H8          34.5890     1.1440   102.4130 ha         1 N0H       0.131000
     27 H9          33.8700     0.7240   104.7510 ha         1 N0H       0.128000
     28 H10         31.4740     0.6220   105.3150 ha         1 N0H       0.137000
     29 H11         27.0290     0.1050    97.5870 ha         1 N0H       0.142000
     30 H12         24.9470    -0.9000    98.4900 ha         1 N0H       0.137000
     31 H13         24.4590     1.1180   102.5230 ho         1 N0H       0.431000
@<TRIPOS>BOND
     1     1     6 1   
     2     1    14 1   
     3     1    19 1   
     4     2     3 ar  
     5     2    11 ar  
     6     2    12 1   
     7     3     4 ar  
     8     3    20 1   
     9     4     9 ar  
    10     4    21 1   
    11     5     6 1   
    12     5    12 1   
    13     5    22 1   
    14     5    23 1   
    15     6    13 2   
    16     7    14 ar  
    17     7    15 ar  
    18     7    24 1   
    19     8    16 ar  
    20     8    17 ar  
    21     8    25 1   
    22     9    10 ar  
    23     9    26 1   
    24    10    11 ar  
    25    10    27 1   
    26    11    28 1   
    27    14    17 ar  
    28    15    16 ar  
    29    15    29 1   
    30    16    30 1   
    31    17    18 1   
    32    18    31 1   
@<TRIPOS>SUBSTRUCTURE
     1 N0H         1 TEMP              0 ****  ****    0 ROOT
