@<TRIPOS>MOLECULE
N0H
   31    32     1     0     0
SMALL
No Charge or Current Charge


@<TRIPOS>ATOM
      1 N1          27.7060     2.5930   101.1850 ns         1 N0H      -0.167000
      2 C4          30.9050     0.9520   103.4430 ca         1 N0H       0.145100
      3 C5          31.2740     1.0630   102.0830 ca         1 N0H      -0.164000
      4 C6          32.6310     1.1620   101.7280 ca         1 N0H      -0.076000
      5 C7          28.4680     0.9960   102.9520 c3         1 N0H       0.080600
      6 C8          28.3040     2.4490   102.4280 c          1 N0H       0.582100
      7 C10         27.1880     1.4530    99.1040 ca         1 N0H      -0.075000
      8 C13         24.9520     0.2110   100.2660 ca         1 N0H      -0.201000
      9 C1          33.6220     1.1470   102.7230 ca         1 N0H      -0.147000
     10 C2          33.2600     1.0310   104.0750 ca         1 N0H      -0.076000
     11 C3          31.9040     0.9320   104.4310 ca         1 N0H      -0.164000
     12 O1          29.5910     0.8480   103.8580 os         1 N0H      -0.320100
     13 O2          28.7730     3.4250   103.0090 o          1 N0H      -0.569100
     14 C9          26.8800     1.6980   100.4560 ca         1 N0H      -0.097000
     15 C11         26.3950     0.5780    98.3430 ca         1 N0H      -0.140000
     16 C12         25.2800    -0.0490    98.9240 ca         1 N0H      -0.062000
     17 C14         25.7420     1.0840   101.0310 ca         1 N0H       0.133100
     18 O3          25.3720     1.3610   102.3150 oh         1 N0H      -0.523100
     19 H1          27.7620     3.5260   100.7970 hn         1 N0H       0.163000
     20 H2          30.5310     1.0700   101.2910 ha         1 N0H       0.119000
     21 H3          32.9140     1.2470   100.6810 ha         1 N0H       0.110000
     22 H4          27.5420     0.7370   103.4740 h1         1 N0H       0.074200
     23 H5          28.5600     0.3140   102.0980 h1         1 N0H       0.074200
     24 H6          28.0500     1.9340    98.6450 ha         1 N0H       0.126000
     25 H7          24.0760    -0.2660   100.7000 ha         1 N0H       0.119000
     26 H8          34.6720     1.2230   102.4460 ha         1 N0H       0.113000
     27 H9          34.0280     1.0170   104.8460 ha         1 N0H       0.110000
     28 H10         31.6240     0.8430   105.4770 ha         1 N0H       0.119000
     29 H11         26.6440     0.3850    97.3020 ha         1 N0H       0.124000
     30 H12         24.6660    -0.7250    98.3320 ha         1 N0H       0.119000
     31 H13         24.5260     0.9000   102.5000 ho         1 N0H       0.470000
@<TRIPOS>BOND
     1     1     6 1   
     2     1    14 1   
     3     1    19 1   
     4     2     3 ar  
     5     2    11 ar  
     6     2    12 1   
     7     3     4 ar  
     8     3    20 1   
     9     4     9 ar  
    10     4    21 1   
    11     5     6 1   
    12     5    12 1   
    13     5    22 1   
    14     5    23 1   
    15     6    13 2   
    16     7    14 ar  
    17     7    15 ar  
    18     7    24 1   
    19     8    16 ar  
    20     8    17 ar  
    21     8    25 1   
    22     9    10 ar  
    23     9    26 1   
    24    10    11 ar  
    25    10    27 1   
    26    11    28 1   
    27    14    17 ar  
    28    15    16 ar  
    29    15    29 1   
    30    16    30 1   
    31    17    18 1   
    32    18    31 1   
@<TRIPOS>SUBSTRUCTURE
     1 N0H         1 TEMP              0 ****  ****    0 ROOT
