@<TRIPOS>MOLECULE
N0I
   50    52     1     0     0
SMALL
No Charge or Current Charge


@<TRIPOS>ATOM
      1 C10        -33.7730    -8.6830    -9.4320 c          1 N0I       0.600100
      2 C13        -31.3380   -11.2940    -9.0480 ca         1 N0I      -0.085000
      3 C15        -32.0530   -13.1570    -7.6340 ca         1 N0I       0.237000
      4 C17        -30.6230   -15.1130    -6.9880 c3         1 N0I       0.188100
      5 C20        -33.5120   -15.4860    -9.3090 c3         1 N0I      -0.384100
      6 C22        -32.9610   -12.2950    -6.9920 ca         1 N0I      -0.095000
      7 C26        -33.2880    -9.5330   -13.1960 c6         1 N0I       0.188800
      8 C02        -35.8730   -10.2670   -17.5270 ca         1 N0I       0.335000
      9 C03        -35.0980   -11.2310   -16.8590 ca         1 N0I      -0.073000
     10 C04        -34.6840   -10.9490   -15.5400 ca         1 N0I      -0.160000
     11 C05        -35.0640    -9.7180   -14.9660 ca         1 N0I       0.547900
     12 C07        -35.3600    -8.2350   -12.9360 c6         1 N0I       0.188800
     13 C08        -35.3060    -8.4150   -11.3960 c6         1 N0I       0.088500
     14 C11        -32.3820    -8.9760    -8.8380 c3         1 N0I      -0.106100
     15 C12        -32.2600   -10.4380    -8.4150 ca         1 N0I      -0.062300
     16 C14        -31.2360   -12.6410    -8.6580 ca         1 N0I      -0.095000
     17 C23        -33.0650   -10.9470    -7.3780 ca         1 N0I      -0.085000
     18 C25        -33.1900    -9.7410   -11.6600 c6         1 N0I       0.088500
     19 N06        -34.6940    -9.3620   -13.6470 nh         1 N0I      -0.769300
     20 N09        -33.9590    -8.7520   -10.8340 n          1 N0I      -0.419800
     21 N27        -35.8220    -8.8330   -15.6660 nb         1 N0I      -0.390000
     22 N28        -36.2220    -9.1010   -16.9320 nb         1 N0I      -0.266000
     23 O24        -34.7000    -8.3640    -8.6970 o          1 N0I      -0.583100
     24 O19        -34.4430   -15.0280    -6.8750 o          1 N0I      -0.535500
     25 O21        -32.8050   -16.9400    -7.2190 o          1 N0I      -0.535500
     26 S18        -33.2650   -15.5860    -7.5460 s6         1 N0I       1.229100
     27 H1         -30.6960   -10.9220    -9.8420 ha         1 N0I       0.117500
     28 H2         -30.6660   -15.7630    -6.1030 h1         1 N0I       0.054700
     29 H3         -30.2850   -15.7070    -7.8480 h1         1 N0I       0.054700
     30 H4         -29.8740   -14.3360    -6.7890 h1         1 N0I       0.054700
     31 H5         -34.3270   -16.1700    -9.5650 h1         1 N0I       0.102033
     32 H6         -33.7710   -14.4500    -9.5480 h1         1 N0I       0.102033
     33 H7         -32.5740   -15.7840    -9.7880 h1         1 N0I       0.102033
     34 H8         -33.5800   -12.6650    -6.1810 ha         1 N0I       0.126500
     35 H9         -32.8060   -10.3880   -13.6900 h1         1 N0I       0.060950
     36 H10        -32.7050    -8.6400   -13.4660 h1         1 N0I       0.060950
     37 H11        -34.8340   -12.1650   -17.3480 ha         1 N0I       0.143000
     38 H12        -34.1010   -11.6700   -14.9780 ha         1 N0I       0.131000
     39 H13        -34.8720    -7.2850   -13.2010 h1         1 N0I       0.060950
     40 H14        -36.4170    -8.1520   -13.2270 h1         1 N0I       0.060950
     41 H15        -35.6780    -7.4920   -10.9290 h1         1 N0I       0.068450
     42 H16        -36.0040    -9.2180   -11.1190 h1         1 N0I       0.068450
     43 H17        -31.6060    -8.7440    -9.5750 hc         1 N0I       0.064200
     44 H18        -32.2370    -8.3400    -7.9570 hc         1 N0I       0.064200
     45 H19        -30.5260   -13.2900    -9.1620 ha         1 N0I       0.126500
     46 H20        -33.7720   -10.2980    -6.8670 ha         1 N0I       0.117500
     47 H21        -33.5590   -10.7480   -11.4220 h1         1 N0I       0.068450
     48 H22        -32.1250    -9.7200   -11.3990 h1         1 N0I       0.068450
     49 N16        -31.9430   -14.5070    -7.2540 nh         1 N0I      -0.765300
     50 Cl01       -36.4360   -10.5340   -19.1720 cl         1 N0I      -0.159000
@<TRIPOS>BOND
     1     1    14 1   
     2     1    20 1   
     3     1    23 2   
     4     2    15 ar  
     5     2    16 ar  
     6     2    27 1   
     7     3     6 ar  
     8     3    16 ar  
     9     3    49 1   
    10     4    28 1   
    11     4    29 1   
    12     4    30 1   
    13     4    49 1   
    14     5    26 1   
    15     5    31 1   
    16     5    32 1   
    17     5    33 1   
    18     6    17 ar  
    19     6    34 1   
    20     7    18 1   
    21     7    19 1   
    22     7    35 1   
    23     7    36 1   
    24     8     9 ar  
    25     8    22 ar  
    26     8    50 1   
    27     9    10 ar  
    28     9    37 1   
    29    10    11 ar  
    30    10    38 1   
    31    11    19 1   
    32    11    21 ar  
    33    12    13 1   
    34    12    19 1   
    35    12    39 1   
    36    12    40 1   
    37    13    20 1   
    38    13    41 1   
    39    13    42 1   
    40    14    15 1   
    41    14    43 1   
    42    14    44 1   
    43    15    17 ar  
    44    16    45 1   
    45    17    46 1   
    46    18    20 1   
    47    18    47 1   
    48    18    48 1   
    49    21    22 ar  
    50    24    26 2   
    51    25    26 2   
    52    26    49 1   
@<TRIPOS>SUBSTRUCTURE
     1 N0I         1 TEMP              0 ****  ****    0 ROOT
