@<TRIPOS>MOLECULE
N0I
   50    52     1     0     0
SMALL
abcg2


@<TRIPOS>ATOM
      1 C10        -33.5720   -12.0610   -11.7790 c          1 N0I       0.600100
      2 C13        -31.7850   -13.6040    -9.4030 ca         1 N0I      -0.085000
      3 C15        -31.9730   -13.0290    -7.0710 ca         1 N0I       0.237000
      4 C17        -30.7630   -14.1770    -5.2310 c3         1 N0I       0.188100
      5 C20        -33.9270   -15.2500    -5.4210 c3         1 N0I      -0.384100
      6 C22        -32.2310   -11.7090    -7.4260 ca         1 N0I      -0.095000
      7 C26        -33.3260    -9.3760   -13.9640 c6         1 N0I       0.188800
      8 C02        -36.2310    -6.0590   -16.3070 ca         1 N0I       0.335000
      9 C03        -34.8450    -6.2260   -16.4280 ca         1 N0I      -0.073000
     10 C04        -34.2970    -7.3070   -15.8040 ca         1 N0I      -0.160000
     11 C05        -35.1580    -8.1760   -15.0840 ca         1 N0I       0.547900
     12 C07        -35.6490   -10.1410   -13.7220 c6         1 N0I       0.188800
     13 C08        -35.1390   -11.5700   -13.5930 c6         1 N0I       0.088500
     14 C11        -32.1590   -11.8880   -11.2140 c3         1 N0I      -0.106100
     15 C12        -32.0670   -12.2900    -9.7700 ca         1 N0I      -0.062300
     16 C14        -31.7420   -13.9770    -8.0650 ca         1 N0I      -0.095000
     17 C23        -32.2840   -11.3480    -8.7640 ca         1 N0I      -0.085000
     18 C25        -32.8590   -10.8200   -13.8380 c6         1 N0I       0.088500
     19 N06        -34.7000    -9.3140   -14.4710 nh         1 N0I      -0.769300
     20 N09        -33.7960   -11.5840   -13.0270 n          1 N0I      -0.419800
     21 N27        -36.4740    -7.9270   -15.0110 nb         1 N0I      -0.390000
     22 N28        -37.0020    -6.8730   -15.6370 nb         1 N0I      -0.266000
     23 O24        -34.4550   -12.6220   -11.1290 o          1 N0I      -0.583100
     24 O19        -34.2990   -12.6650    -5.3840 o          1 N0I      -0.535500
     25 O21        -33.0700   -13.7070    -3.4890 o          1 N0I      -0.535500
     26 S18        -33.3570   -13.6490    -4.9050 s6         1 N0I       1.229100
     27 H1         -31.6070   -14.3480   -10.1690 ha         1 N0I       0.117500
     28 H2         -30.7380   -14.1870    -4.1450 h1         1 N0I       0.054700
     29 H3         -30.7870   -15.2040    -5.6030 h1         1 N0I       0.054700
     30 H4         -29.8650   -13.6860    -5.6010 h1         1 N0I       0.054700
     31 H5         -34.8730   -15.4320    -4.9140 h1         1 N0I       0.102033
     32 H6         -34.0670   -15.2350    -6.5000 h1         1 N0I       0.102033
     33 H7         -33.1890   -15.9960    -5.1320 h1         1 N0I       0.102033
     34 H8         -32.3940   -10.9740    -6.6490 ha         1 N0I       0.126500
     35 H9         -32.6500    -8.8560   -14.6340 h1         1 N0I       0.060950
     36 H10        -33.2740    -8.8900   -12.9810 h1         1 N0I       0.060950
     37 H11        -34.2460    -5.5320   -16.9990 ha         1 N0I       0.143000
     38 H12        -33.2370    -7.4920   -15.8840 ha         1 N0I       0.131000
     39 H13        -35.8150    -9.7160   -12.7230 h1         1 N0I       0.060950
     40 H14        -36.6000   -10.1430   -14.2440 h1         1 N0I       0.060950
     41 H15        -35.8000   -12.1410   -12.9490 h1         1 N0I       0.068450
     42 H16        -35.1060   -12.0430   -14.5780 h1         1 N0I       0.068450
     43 H17        -31.4730   -12.4810   -11.8240 hc         1 N0I       0.064200
     44 H18        -31.8590   -10.8450   -11.3230 hc         1 N0I       0.064200
     45 H19        -31.5330   -15.0050    -7.7980 ha         1 N0I       0.126500
     46 H20        -32.4910   -10.3190    -9.0320 ha         1 N0I       0.117500
     47 H21        -32.8140   -11.2780   -14.8300 h1         1 N0I       0.068450
     48 H22        -31.8610   -10.8430   -13.4150 h1         1 N0I       0.068450
     49 N16        -31.9190   -13.3820    -5.6780 nh         1 N0I      -0.765300
     50 CL01       -37.0090    -4.6970   -17.0770 cl         1 N0I      -0.159000
@<TRIPOS>BOND
     1     1    14 1   
     2     1    20 1   
     3     1    23 2   
     4     2    15 ar  
     5     2    16 ar  
     6     2    27 1   
     7     3     6 ar  
     8     3    16 ar  
     9     3    49 1   
    10     4    28 1   
    11     4    29 1   
    12     4    30 1   
    13     4    49 1   
    14     5    26 1   
    15     5    31 1   
    16     5    32 1   
    17     5    33 1   
    18     6    17 ar  
    19     6    34 1   
    20     7    18 1   
    21     7    19 1   
    22     7    35 1   
    23     7    36 1   
    24     8     9 ar  
    25     8    22 ar  
    26     8    50 1   
    27     9    10 ar  
    28     9    37 1   
    29    10    11 ar  
    30    10    38 1   
    31    11    19 1   
    32    11    21 ar  
    33    12    13 1   
    34    12    19 1   
    35    12    39 1   
    36    12    40 1   
    37    13    20 1   
    38    13    41 1   
    39    13    42 1   
    40    14    15 1   
    41    14    43 1   
    42    14    44 1   
    43    15    17 ar  
    44    16    45 1   
    45    17    46 1   
    46    18    20 1   
    47    18    47 1   
    48    18    48 1   
    49    21    22 ar  
    50    24    26 2   
    51    25    26 2   
    52    26    49 1   
@<TRIPOS>SUBSTRUCTURE
     1 N0I         1 TEMP              0 ****  ****    0 ROOT
