@<TRIPOS>MOLECULE
N0L
   61    63     1     0     0
SMALL
abcg2


@<TRIPOS>ATOM
      1 C11         15.4500    20.8950    -0.6720 c          1 N0L       0.599100
      2 C12         15.7130    19.5690     0.0900 c6         1 N0L       0.198200
      3 C14         17.7340    20.3840     1.3540 ca         1 N0L       0.344000
      4 C15         19.0580    20.1020     1.7340 ca         1 N0L      -0.192500
      5 C16         19.8080    21.0020     2.4650 ca         1 N0L      -0.055000
      6 C17         19.2510    22.2140     2.8470 ca         1 N0L       0.061000
      7 C18         17.9440    22.5090     2.5060 ca         1 N0L      -0.055000
      8 C19         17.1890    21.6060     1.7720 ca         1 N0L      -0.192500
      9 C21         14.7090    19.4230     1.2540 c6         1 N0L      -0.121900
     10 C22         14.7990    18.0370     1.8680 c6         1 N0L       0.153100
     11 C24         15.4180    17.0480    -0.1480 c6         1 N0L       0.153100
     12 C25         15.4280    18.3920    -0.8670 c6         1 N0L      -0.121900
     13 C01         22.4940    27.9650    -3.0130 c3         1 N0L       0.022600
     14 C02         22.8760    26.6720    -2.3080 c          1 N0L       0.594100
     15 C04         22.3080    24.2960    -2.1180 c3         1 N0L       0.103000
     16 C05         21.1540    23.3860    -2.5080 c3         1 N0L      -0.094400
     17 C06         19.8000    23.8530    -1.9830 c3         1 N0L      -0.073400
     18 C07         18.6340    22.9510    -2.3810 c6         1 N0L      -0.056700
     19 C08         18.7700    21.5380    -1.8190 c6         1 N0L      -0.096400
     20 C09         17.5350    20.6910    -2.0950 c6         1 N0L       0.100500
     21 C27         16.1270    22.6350    -2.2230 c6         1 N0L       0.100500
     22 C28         17.3050    23.5520    -1.9240 c6         1 N0L      -0.096400
     23 N03         22.1710    25.6110    -2.7170 ns         1 N0L      -0.511900
     24 N10         16.3280    21.3340    -1.5970 n          1 N0L      -0.399800
     25 N13         17.0700    19.4740     0.5790 nu         1 N0L      -0.994200
     26 O23         14.5120    17.0260     0.9250 os         1 N0L      -0.442000
     27 O26         14.4250    21.5190    -0.4210 o          1 N0L      -0.607100
     28 O29         23.7090    26.6370    -1.4200 o          1 N0L      -0.571100
     29 CL20        20.1920    23.3570     3.7570 cl         1 N0L      -0.207000
     30 H151        19.5110    19.1640     1.4350 ha         1 N0L       0.121000
     31 H161        20.8280    20.7560     2.7310 ha         1 N0L       0.126500
     32 H181        17.4960    23.4470     2.8070 ha         1 N0L       0.126500
     33 H191        16.1740    21.8870     1.5300 ha         1 N0L       0.121000
     34 H212        14.8930    20.1660     2.0320 hc         1 N0L       0.070200
     35 H211        13.6940    19.5880     0.8930 hc         1 N0L       0.070200
     36 H221        14.0640    17.9410     2.6690 h1         1 N0L       0.047450
     37 H222        15.7900    17.8770     2.3150 h1         1 N0L       0.047450
     38 H241        15.1110    16.2700    -0.8500 h1         1 N0L       0.047450
     39 H242        16.4290    16.7840     0.1940 h1         1 N0L       0.047450
     40 H252        16.1480    18.3450    -1.6870 hc         1 N0L       0.070200
     41 H251        14.4480    18.5600    -1.3180 hc         1 N0L       0.070200
     42 H012        22.1250    27.7960    -4.0230 h1         1 N0L       0.076200
     43 CL1         23.8850    29.0700    -3.1120 cl         1 N0L      -0.225000
     44 H011        21.7100    28.4650    -2.4430 h1         1 N0L       0.076200
     45 H041        23.2550    23.8420    -2.4250 h1         1 N0L       0.056700
     46 H042        22.3430    24.4030    -1.0320 h1         1 N0L       0.056700
     47 H052        21.1170    23.2850    -3.5980 hc         1 N0L       0.046200
     48 H051        21.3870    22.3930    -2.1180 hc         1 N0L       0.046200
     49 H061        19.8420    23.9220    -0.8890 hc         1 N0L       0.046700
     50 H062        19.5940    24.8660    -2.3440 hc         1 N0L       0.046700
     51 H071        18.6110    22.8800    -3.4770 hc         1 N0L       0.041700
     52 H081        19.6330    21.0250    -2.2500 hc         1 N0L       0.053200
     53 H082        18.9390    21.5910    -0.7390 hc         1 N0L       0.053200
     54 H092        17.4160    20.5620    -3.1770 h1         1 N0L       0.053450
     55 H091        17.6690    19.7030    -1.6770 h1         1 N0L       0.053450
     56 H271        15.1970    23.0720    -1.8700 h1         1 N0L       0.053450
     57 H272        16.0290    22.4890    -3.3040 h1         1 N0L       0.053450
     58 H282        17.3420    23.7430    -0.8460 hc         1 N0L       0.053200
     59 H281        17.1380    24.5160    -2.4120 hc         1 N0L       0.053200
     60 H031        21.5710    25.7000    -3.5220 hn         1 N0L       0.312500
     61 H131        17.5910    18.6480     0.3340 hn         1 N0L       0.488000
@<TRIPOS>BOND
     1     1     2 1   
     2     1    24 1   
     3     1    27 2   
     4     2     9 1   
     5     2    12 1   
     6     2    25 1   
     7     3     4 ar  
     8     3     8 ar  
     9     3    25 1   
    10     4     5 ar  
    11     4    30 1   
    12     5     6 ar  
    13     5    31 1   
    14     6     7 ar  
    15     6    29 1   
    16     7     8 ar  
    17     7    32 1   
    18     8    33 1   
    19     9    10 1   
    20     9    34 1   
    21     9    35 1   
    22    10    26 1   
    23    10    36 1   
    24    10    37 1   
    25    11    12 1   
    26    11    26 1   
    27    11    38 1   
    28    11    39 1   
    29    12    40 1   
    30    12    41 1   
    31    13    14 1   
    32    13    42 1   
    33    13    43 1   
    34    13    44 1   
    35    14    23 1   
    36    14    28 2   
    37    15    16 1   
    38    15    23 1   
    39    15    45 1   
    40    15    46 1   
    41    16    17 1   
    42    16    47 1   
    43    16    48 1   
    44    17    18 1   
    45    17    49 1   
    46    17    50 1   
    47    18    19 1   
    48    18    22 1   
    49    18    51 1   
    50    19    20 1   
    51    19    52 1   
    52    19    53 1   
    53    20    24 1   
    54    20    54 1   
    55    20    55 1   
    56    21    22 1   
    57    21    24 1   
    58    21    56 1   
    59    21    57 1   
    60    22    58 1   
    61    22    59 1   
    62    23    60 1   
    63    25    61 1   
@<TRIPOS>SUBSTRUCTURE
     1 N0L         1 TEMP              0 ****  ****    0 ROOT
