@<TRIPOS>MOLECULE
N0L
   61    63     1     0     0
SMALL
No Charge or Current Charge


@<TRIPOS>ATOM
      1 C11         15.8700    21.1260    -0.2890 c          1 N0L       0.599100
      2 C12         15.6280    19.6550     0.3200 c6         1 N0L       0.198200
      3 C14         17.7410    20.0010     1.7290 ca         1 N0L       0.344000
      4 C15         19.0690    19.6190     1.4830 ca         1 N0L      -0.192500
      5 C16         20.1340    20.4230     1.9310 ca         1 N0L      -0.055000
      6 C17         19.8660    21.6070     2.6380 ca         1 N0L       0.061000
      7 C18         18.5380    21.9770     2.9120 ca         1 N0L      -0.055000
      8 C19         17.4790    21.1680     2.4630 ca         1 N0L      -0.192500
      9 C21         14.2710    19.6600     1.0960 c6         1 N0L      -0.121900
     10 C22         13.7890    18.2480     1.4900 c6         1 N0L       0.153100
     11 C24         14.9410    17.2250    -0.3500 c6         1 N0L       0.153100
     12 C25         15.5260    18.5800    -0.8230 c6         1 N0L      -0.121900
     13 C01         21.8060    28.0510    -3.5590 c3         1 N0L       0.022600
     14 C02         21.8580    26.9590    -2.4770 c          1 N0L       0.594100
     15 C04         22.5780    24.5720    -2.0570 c3         1 N0L       0.103000
     16 C05         21.4880    23.5170    -2.3460 c3         1 N0L      -0.094400
     17 C06         20.0470    23.9750    -2.0050 c3         1 N0L      -0.073400
     18 C07         18.9220    22.9380    -2.3070 c6         1 N0L      -0.056700
     19 C08         19.0590    21.6390    -1.4690 c6         1 N0L      -0.096400
     20 C09         17.8930    20.6560    -1.7340 c6         1 N0L       0.100500
     21 C27         16.3950    22.5310    -2.3170 c6         1 N0L       0.100500
     22 C28         17.5220    23.5570    -2.0600 c6         1 N0L      -0.096400
     23 N03         22.4390    25.7740    -2.8870 ns         1 N0L      -0.511900
     24 N10         16.5690    21.2950    -1.5100 n          1 N0L      -0.399800
     25 N13         16.7090    19.1930     1.2590 nu         1 N0L      -0.994200
     26 O23         13.6810    17.4300     0.3120 os         1 N0L      -0.442000
     27 O26         15.4880    22.1290     0.3120 o          1 N0L      -0.607100
     28 O29         21.4260    27.1120    -1.3420 o          1 N0L      -0.571100
     29 Cl20        21.1930    22.6220     3.1860 cl         1 N0L      -0.207000
     30 H151        19.2800    18.7090     0.9290 ha         1 N0L       0.121000
     31 H161        21.1620    20.1330     1.7260 ha         1 N0L       0.126500
     32 H181        18.3320    22.8870     3.4700 ha         1 N0L       0.126500
     33 H191        16.4550    21.4500     2.6860 ha         1 N0L       0.121000
     34 H212        14.3540    20.2790     1.9980 hc         1 N0L       0.070200
     35 H211        13.4960    20.1290     0.4740 hc         1 N0L       0.070200
     36 H221        12.8040    18.3100     1.9740 h1         1 N0L       0.047450
     37 H222        14.4910    17.7840     2.1980 h1         1 N0L       0.047450
     38 H241        14.7860    16.5640    -1.2140 h1         1 N0L       0.047450
     39 H242        15.6350    16.7210     0.3390 h1         1 N0L       0.047450
     40 H252        16.4940    18.3810    -1.2930 hc         1 N0L       0.070200
     41 H251        14.8790    18.9680    -1.6220 hc         1 N0L       0.070200
     42 H012        22.8320    28.2980    -3.8580 h1         1 N0L       0.076200
     43 Cl1         20.9820    29.5990    -3.0390 cl         1 N0L      -0.225000
     44 H011        21.2660    27.6580    -4.4280 h1         1 N0L       0.076200
     45 H041        23.5630    24.1300    -2.2580 h1         1 N0L       0.056700
     46 H042        22.5520    24.8470    -0.9940 h1         1 N0L       0.056700
     47 H052        21.5390    23.2280    -3.4030 hc         1 N0L       0.046200
     48 H051        21.7330    22.6220    -1.7620 hc         1 N0L       0.046200
     49 H061        20.0120    24.2590    -0.9460 hc         1 N0L       0.046700
     50 H062        19.8360    24.8910    -2.5710 hc         1 N0L       0.046700
     51 H071        19.0050    22.6810    -3.3730 hc         1 N0L       0.041700
     52 H081        20.0050    21.1290    -1.6930 hc         1 N0L       0.053200
     53 H082        19.0840    21.8920    -0.4010 hc         1 N0L       0.053200
     54 H092        17.9450    20.2930    -2.7700 h1         1 N0L       0.053450
     55 H091        18.0310    19.7910    -1.0760 h1         1 N0L       0.053450
     56 H271        15.4190    22.9890    -2.1010 h1         1 N0L       0.053450
     57 H272        16.3900    22.2570    -3.3820 h1         1 N0L       0.053450
     58 H282        17.4520    23.9210    -1.0250 hc         1 N0L       0.053200
     59 H281        17.3750    24.4310    -2.7090 hc         1 N0L       0.053200
     60 H031        22.7740    25.7370    -3.8440 hn         1 N0L       0.312500
     61 H131        17.0050    18.2260     1.1340 hn         1 N0L       0.488000
@<TRIPOS>BOND
     1     1     2 1   
     2     1    24 1   
     3     1    27 2   
     4     2     9 1   
     5     2    12 1   
     6     2    25 1   
     7     3     4 ar  
     8     3     8 ar  
     9     3    25 1   
    10     4     5 ar  
    11     4    30 1   
    12     5     6 ar  
    13     5    31 1   
    14     6     7 ar  
    15     6    29 1   
    16     7     8 ar  
    17     7    32 1   
    18     8    33 1   
    19     9    10 1   
    20     9    34 1   
    21     9    35 1   
    22    10    26 1   
    23    10    36 1   
    24    10    37 1   
    25    11    12 1   
    26    11    26 1   
    27    11    38 1   
    28    11    39 1   
    29    12    40 1   
    30    12    41 1   
    31    13    14 1   
    32    13    42 1   
    33    13    43 1   
    34    13    44 1   
    35    14    23 1   
    36    14    28 2   
    37    15    16 1   
    38    15    23 1   
    39    15    45 1   
    40    15    46 1   
    41    16    17 1   
    42    16    47 1   
    43    16    48 1   
    44    17    18 1   
    45    17    49 1   
    46    17    50 1   
    47    18    19 1   
    48    18    22 1   
    49    18    51 1   
    50    19    20 1   
    51    19    52 1   
    52    19    53 1   
    53    20    24 1   
    54    20    54 1   
    55    20    55 1   
    56    21    22 1   
    57    21    24 1   
    58    21    56 1   
    59    21    57 1   
    60    22    58 1   
    61    22    59 1   
    62    23    60 1   
    63    25    61 1   
@<TRIPOS>SUBSTRUCTURE
     1 N0L         1 TEMP              0 ****  ****    0 ROOT
