@<TRIPOS>MOLECULE
N0N
   71    73     1     0     0
SMALL
No Charge or Current Charge


@<TRIPOS>ATOM
      1 C4          12.7720    21.3610    82.3340 c5         1 N0N       0.133500
      2 C5          11.9710    21.6210    83.6510 c5         1 N0N      -0.131700
      3 O4          20.6450    20.1930    88.6200 o          1 N0N      -0.534500
      4 C6          10.7850    22.5160    83.1010 c5         1 N0N       0.140300
      5 C7          22.3980    18.1660    88.7380 ca         1 N0N      -0.304500
      6 C8          11.5520    20.3490    84.4570 c3         1 N0N       0.161600
      7 C9          23.5590    18.7890    88.1850 ca         1 N0N       0.060000
      8 C10         24.8500    18.2780    88.5090 ca         1 N0N      -0.067000
      9 C11         24.9600    17.1490    89.3510 ca         1 N0N      -0.026000
     10 C12         23.8170    16.5390    89.8780 ca         1 N0N      -0.155000
     11 C13         22.5470    17.0420    89.5790 ca         1 N0N       0.012000
     12 C14         26.0180    18.8890    87.9770 ca         1 N0N       0.292000
     13 C2          10.7830    22.3130    81.5350 c5         1 N0N       0.178300
     14 C3          11.6220    21.0110    81.3500 c5         1 N0N       0.179300
     15 N7          13.6970    20.1950    82.4390 n7         1 N0N      -0.883400
     16 O9          10.7430    20.7180    85.5820 oh         1 N0N      -0.673000
     17 O10          9.5330    22.1400    83.6850 oh         1 N0N      -0.709000
     18 O11          9.4450    22.2310    81.0360 oh         1 N0N      -0.620000
     19 O12         12.1190    20.7880    80.0240 oh         1 N0N      -0.700000
     20 C16         15.8010    19.1470    83.1940 c3         1 N0N      -0.082400
     21 C17         17.1160    19.3070    83.9880 c3         1 N0N      -0.076400
     22 C18         17.9910    18.0310    83.9680 c3         1 N0N      -0.074400
     23 C19         19.3540    18.1800    84.6870 c3         1 N0N      -0.079400
     24 C20         19.2470    18.4160    86.2080 c3         1 N0N       0.198800
     25 N21         20.5920    18.4790    86.7940 n7         1 N0N      -0.868300
     26 S1          20.7070    18.7410    88.4370 sy         1 N0N       1.147600
     27 O2          19.7500    17.8290    89.0690 o          1 N0N      -0.534500
     28 C21         25.8930    19.9870    87.1130 ca         1 N0N      -0.172000
     29 C22         24.6330    20.4880    86.7770 ca         1 N0N      -0.056000
     30 C23         23.4790    19.8970    87.3070 ca         1 N0N      -0.157000
     31 N24         27.3220    18.4370    88.2940 nh         1 N0N      -0.780400
     32 C25         28.2620    18.0480    87.2210 c3         1 N0N       0.170100
     33 C26         27.9030    18.7240    89.6220 c3         1 N0N       0.170100
     34 H1          13.3110    22.2640    82.0040 h1         1 N0N       0.070700
     35 H2          12.5860    22.2100    84.3410 hc         1 N0N       0.067700
     36 H3          10.9880    23.5730    83.3240 h1         1 N0N       0.042700
     37 H4          11.0000    19.6550    83.8100 h1         1 N0N       0.027200
     38 H5          12.4550    19.8310    84.8060 h1         1 N0N       0.027200
     39 H6          25.9310    16.7270    89.5970 ha         1 N0N       0.131000
     40 H7          23.9170    15.6700    90.5250 ha         1 N0N       0.121000
     41 H8          21.6800    16.5470    90.0150 ha         1 N0N       0.144000
     42 H9          15.5030    21.2540    82.7920 h1         1 N0N       0.032700
     43 H10         14.6900    20.6690    84.2580 h1         1 N0N       0.032700
     44 H11         11.3010    23.1560    81.0560 h1         1 N0N       0.038700
     45 H12         11.0570    20.1310    81.6880 h1         1 N0N       0.057700
     46 H13         13.2050    19.3860    82.8360 hn         1 N0N       0.417000
     47 H15         10.7720    19.9650    86.2170 ho         1 N0N       0.450000
     48 H16          9.7980    21.6410    84.5110 ho         1 N0N       0.516000
     49 H17          8.9150    22.1510    81.8670 ho         1 N0N       0.445000
     50 H18         12.9910    20.3470    80.1750 ho         1 N0N       0.517000
     51 H19         15.2280    18.3100    83.6120 hc         1 N0N       0.045200
     52 H20         16.0360    18.8910    82.1540 hc         1 N0N       0.045200
     53 H21         17.6890    20.1440    83.5690 hc         1 N0N       0.042700
     54 H22         16.8720    19.5710    85.0240 hc         1 N0N       0.042700
     55 H23         17.4340    17.2000    84.4190 hc         1 N0N       0.042200
     56 H24         18.1810    17.7500    82.9240 hc         1 N0N       0.042200
     57 H25         19.9370    17.2680    84.5100 hc         1 N0N       0.051200
     58 H26         19.9150    19.0060    84.2320 hc         1 N0N       0.051200
     59 H27         18.7100    19.3570    86.3910 h1         1 N0N       0.053200
     60 H28         18.6590    17.6010    86.6560 h1         1 N0N       0.053200
     61 H29         21.0610    17.5810    86.6940 hn         1 N0N       0.480000
     62 H30         26.7830    20.4600    86.7050 ha         1 N0N       0.119000
     63 H31         24.5470    21.3390    86.1040 ha         1 N0N       0.117000
     64 H32         22.5280    20.3210    87.0050 ha         1 N0N       0.124000
     65 H33         28.9160    17.2340    87.5610 h1         1 N0N       0.038200
     66 H34         27.7130    17.6920    86.3390 h1         1 N0N       0.038200
     67 H35         28.8860    18.9010    86.9260 h1         1 N0N       0.038200
     68 H36         27.1240    19.0490    90.3240 h1         1 N0N       0.038200
     69 H37         28.3780    17.8240    90.0360 h1         1 N0N       0.038200
     70 H38         28.6560    19.5200    89.5500 h1         1 N0N       0.038200
     71 C15         14.9300    20.4180    83.2160 c3         1 N0N       0.168800
@<TRIPOS>BOND
     1     1     2 1   
     2     1    14 1   
     3     1    15 1   
     4     1    34 1   
     5     2     4 1   
     6     2     6 1   
     7     2    35 1   
     8     3    26 2   
     9     4    13 1   
    10     4    17 1   
    11     4    36 1   
    12     5     7 ar  
    13     5    11 ar  
    14     5    26 1   
    15     6    16 1   
    16     6    37 1   
    17     6    38 1   
    18     7     8 ar  
    19     7    30 ar  
    20     8     9 ar  
    21     8    12 ar  
    22     9    10 ar  
    23     9    39 1   
    24    10    11 ar  
    25    10    40 1   
    26    11    41 1   
    27    12    28 ar  
    28    12    31 1   
    29    13    14 1   
    30    13    18 1   
    31    13    44 1   
    32    14    19 1   
    33    14    45 1   
    34    15    46 1   
    35    15    71 1   
    36    16    47 1   
    37    17    48 1   
    38    18    49 1   
    39    19    50 1   
    40    20    21 1   
    41    20    51 1   
    42    20    52 1   
    43    20    71 1   
    44    21    22 1   
    45    21    53 1   
    46    21    54 1   
    47    22    23 1   
    48    22    55 1   
    49    22    56 1   
    50    23    24 1   
    51    23    57 1   
    52    23    58 1   
    53    24    25 1   
    54    24    59 1   
    55    24    60 1   
    56    25    26 1   
    57    25    61 1   
    58    26    27 2   
    59    28    29 ar  
    60    28    62 1   
    61    29    30 ar  
    62    29    63 1   
    63    30    64 1   
    64    31    32 1   
    65    31    33 1   
    66    32    65 1   
    67    32    66 1   
    68    32    67 1   
    69    33    68 1   
    70    33    69 1   
    71    33    70 1   
    72    42    71 1   
    73    43    71 1   
@<TRIPOS>SUBSTRUCTURE
     1 N0N         1 TEMP              0 ****  ****    0 ROOT
