@<TRIPOS>MOLECULE
N0N
   71    73     1     0     0
SMALL
bcc


@<TRIPOS>ATOM
      1 C4          13.0230    20.4160    83.1410 c5         1 N0N       0.133500
      2 C5          12.3810    19.8270    84.4340 c5         1 N0N      -0.131700
      3 O4          23.1190    22.8930    88.0020 o          1 N0N      -0.605300
      4 C6          10.9060    19.5010    84.0370 c5         1 N0N       0.117100
      5 C7          22.1980    20.4150    88.2030 ca         1 N0N      -0.304500
      6 C8          13.1230    18.6210    84.9820 c3         1 N0N       0.138400
      7 C9          23.3440    19.7080    87.7290 ca         1 N0N       0.060000
      8 C10         23.4620    18.3370    88.0990 ca         1 N0N      -0.067000
      9 C11         22.4280    17.7280    88.8460 ca         1 N0N      -0.044000
     10 C12         21.3430    18.4400    89.2720 ca         1 N0N      -0.173000
     11 C13         21.2320    19.8020    88.9560 ca         1 N0N      -0.006000
     12 C14         24.5980    17.5730    87.6740 ca         1 N0N       0.153600
     13 C2          10.7290    20.1790    82.6680 c5         1 N0N       0.155100
     14 C3          12.0830    19.9820    82.0230 c5         1 N0N       0.156100
     15 N7          14.3950    20.1240    82.8040 n7         1 N0N      -0.828200
     16 O9          12.3830    18.1010    86.0730 oh         1 N0N      -0.610800
     17 O10         10.6490    18.1260    83.8730 oh         1 N0N      -0.586800
     18 O11          9.6960    19.6700    81.8730 oh         1 N0N      -0.557800
     19 O12         12.2440    20.7260    80.8470 oh         1 N0N      -0.577800
     20 C16         16.7990    20.4530    83.1440 c3         1 N0N      -0.082400
     21 C17         17.8790    21.2010    83.9150 c3         1 N0N      -0.076400
     22 C18         19.2840    20.8170    83.4630 c3         1 N0N      -0.074400
     23 C19         20.3970    21.6260    84.1200 c3         1 N0N      -0.079400
     24 C20         20.5060    21.3780    85.6160 c3         1 N0N       0.198800
     25 N21         21.6250    22.1530    86.1530 n7         1 N0N      -0.813100
     26 S1          21.9090    22.1190    87.7720 sy         1 N0N       1.289200
     27 O2          20.6770    22.5290    88.4240 o          1 N0N      -0.605300
     28 C21         25.5070    18.1540    86.8220 ca         1 N0N      -0.190000
     29 C22         25.3660    19.4950    86.4330 ca         1 N0N      -0.074000
     30 C23         24.3370    20.2700    86.8910 ca         1 N0N      -0.175000
     31 N24         24.7190    16.2520    88.1270 nh         1 N0N      -0.642000
     32 C25         25.4830    15.3500    87.2930 c3         1 N0N       0.170100
     33 C26         25.0910    16.1230    89.5300 c3         1 N0N       0.170100
     34 H1          12.9480    21.5080    83.2070 h1         1 N0N       0.070700
     35 H2          12.3740    20.5940    85.2130 hc         1 N0N       0.067700
     36 H3          10.2140    19.9290    84.7730 h1         1 N0N       0.042700
     37 H4          13.2610    17.8610    84.2030 h1         1 N0N       0.027200
     38 H5          14.1250    18.9240    85.3100 h1         1 N0N       0.027200
     39 H6          22.4890    16.6700    89.0600 ha         1 N0N       0.149000
     40 H7          20.5570    17.9570    89.8360 ha         1 N0N       0.139000
     41 H8          20.3660    20.3520    89.2980 ha         1 N0N       0.162000
     42 H9          15.2420    21.9040    83.4400 h1         1 N0N       0.032700
     43 H10         15.2990    20.6530    84.6680 h1         1 N0N       0.032700
     44 H11         10.5990    21.2580    82.8470 h1         1 N0N       0.038700
     45 H12         12.2310    18.9050    81.8300 h1         1 N0N       0.057700
     46 H13         14.5710    19.1260    82.8240 hn         1 N0N       0.361800
     47 H15         12.8300    17.3100    86.3910 ho         1 N0N       0.411000
     48 H16         10.8570    17.7050    84.7170 ho         1 N0N       0.417000
     49 H17          8.8610    19.8070    82.3300 ho         1 N0N       0.406000
     50 H18         13.1910    20.7330    80.6610 ho         1 N0N       0.418000
     51 H19         16.9390    19.3740    83.2760 hc         1 N0N       0.045200
     52 H20         16.9020    20.6520    82.0730 hc         1 N0N       0.045200
     53 H21         17.7420    22.2800    83.7840 hc         1 N0N       0.042700
     54 H22         17.7570    21.0050    84.9850 hc         1 N0N       0.042700
     55 H23         19.4480    19.7500    83.6450 hc         1 N0N       0.042200
     56 H24         19.3560    20.9540    82.3810 hc         1 N0N       0.042200
     57 H25         21.3490    21.3650    83.6470 hc         1 N0N       0.051200
     58 H26         20.2380    22.6930    83.9400 hc         1 N0N       0.051200
     59 H27         19.5970    21.6970    86.1240 h1         1 N0N       0.053200
     60 H28         20.6320    20.3040    85.8030 h1         1 N0N       0.053200
     61 H29         22.4770    22.0670    85.6090 hn         1 N0N       0.424800
     62 H30         26.3610    17.5960    86.4620 ha         1 N0N       0.137000
     63 H31         26.1100    19.9330    85.7810 ha         1 N0N       0.135000
     64 H32         24.3210    21.3110    86.6100 ha         1 N0N       0.142000
     65 H33         25.2940    14.3270    87.6180 h1         1 N0N       0.038200
     66 H34         25.1680    15.4340    86.2540 h1         1 N0N       0.038200
     67 H35         26.5680    15.5150    87.3400 h1         1 N0N       0.038200
     68 H36         24.5120    16.7970    90.1570 h1         1 N0N       0.038200
     69 H37         24.8990    15.1040    89.8670 h1         1 N0N       0.038200
     70 H38         26.1540    16.3440    89.6920 h1         1 N0N       0.038200
     71 C15         15.3940    20.8300    83.5860 c3         1 N0N       0.168800
@<TRIPOS>BOND
     1     1     2 1   
     2     1    14 1   
     3     1    15 1   
     4     1    34 1   
     5     2     4 1   
     6     2     6 1   
     7     2    35 1   
     8     3    26 2   
     9     4    13 1   
    10     4    17 1   
    11     4    36 1   
    12     5     7 ar  
    13     5    11 ar  
    14     5    26 1   
    15     6    16 1   
    16     6    37 1   
    17     6    38 1   
    18     7     8 ar  
    19     7    30 ar  
    20     8     9 ar  
    21     8    12 ar  
    22     9    10 ar  
    23     9    39 1   
    24    10    11 ar  
    25    10    40 1   
    26    11    41 1   
    27    12    28 ar  
    28    12    31 1   
    29    13    14 1   
    30    13    18 1   
    31    13    44 1   
    32    14    19 1   
    33    14    45 1   
    34    15    46 1   
    35    15    71 1   
    36    16    47 1   
    37    17    48 1   
    38    18    49 1   
    39    19    50 1   
    40    20    21 1   
    41    20    51 1   
    42    20    52 1   
    43    20    71 1   
    44    21    22 1   
    45    21    53 1   
    46    21    54 1   
    47    22    23 1   
    48    22    55 1   
    49    22    56 1   
    50    23    24 1   
    51    23    57 1   
    52    23    58 1   
    53    24    25 1   
    54    24    59 1   
    55    24    60 1   
    56    25    26 1   
    57    25    61 1   
    58    26    27 2   
    59    28    29 ar  
    60    28    62 1   
    61    29    30 ar  
    62    29    63 1   
    63    30    64 1   
    64    31    32 1   
    65    31    33 1   
    66    32    65 1   
    67    32    66 1   
    68    32    67 1   
    69    33    68 1   
    70    33    69 1   
    71    33    70 1   
    72    42    71 1   
    73    43    71 1   
@<TRIPOS>SUBSTRUCTURE
     1 N0N         1 TEMP              0 ****  ****    0 ROOT
