@<TRIPOS>MOLECULE
N0O
   37    40     1     0     0
SMALL
abcg2


@<TRIPOS>ATOM
      1 N1           7.2010     0.1280    17.9370 nc         1 N0O      -0.336000
      2 N3           6.0670     1.5810    19.1350 na         1 N0O      -0.293800
      3 C4           8.3230     0.6000    23.4940 c5         1 N0O       0.157600
      4 C5           8.7930    -0.2910    22.3110 c5         1 N0O      -0.112400
      5 C6           8.5120     0.3980    20.9810 c          1 N0O       0.613100
      6 C7           6.9310     0.5160    19.1550 cd         1 N0O       0.497400
      7 C8           5.8340     1.8050    17.8130 cd         1 N0O       0.401400
      8 C10          6.3230     3.0300    21.0780 ca         1 N0O      -0.103000
      9 C13          3.5860     2.8410    21.5760 ca         1 N0O      -0.104000
     10 C15         10.2680    -0.3890    22.5970 ca         1 N0O      -0.157300
     11 O1           9.1830     1.3230    20.5560 o          1 N0O      -0.543100
     12 O            9.5120     1.2390    24.0310 os         1 N0O      -0.327100
     13 C3          10.5910     0.5430    23.5770 ca         1 N0O       0.138100
     14 C2          11.8940     0.7280    24.0110 ca         1 N0O      -0.125000
     15 C1          12.8870    -0.0650    23.4370 ca         1 N0O      -0.060000
     16 C16         11.2490    -1.1760    22.0230 ca         1 N0O      -0.032000
     17 C           12.5590    -1.0020    22.4640 ca         1 N0O       0.088000
     18 CL          13.8290    -1.9930    21.7680 cl         1 N0O      -0.206000
     19 N            7.4040    -0.0640    20.3310 ns         1 N0O      -0.497400
     20 N2           6.5020     0.9500    17.0790 nc         1 N0O      -0.355000
     21 C9           5.5010     2.2730    20.2520 ca         1 N0O      -0.017200
     22 C14          4.1360     2.1700    20.4900 ca         1 N0O      -0.103000
     23 C12          4.3990     3.5940    22.4170 ca         1 N0O      -0.100000
     24 C11          5.7650     3.6870    22.1680 ca         1 N0O      -0.104000
     25 H2           7.8830    -0.0130    24.2800 h1         1 N0O       0.067200
     26 H3           8.2910    -1.2580    22.3420 hc         1 N0O       0.079700
     27 H4           5.1880     2.5900    17.4550 h5         1 N0O       0.070100
     28 H5           7.3800     3.0990    20.8660 ha         1 N0O       0.139000
     29 H6           2.5230     2.7660    21.7680 ha         1 N0O       0.125000
     30 H7          12.1350     1.4570    24.7720 ha         1 N0O       0.137000
     31 H8          13.9150     0.0450    23.7530 ha         1 N0O       0.133000
     32 H9          11.0140    -1.9010    21.2550 ha         1 N0O       0.137000
     33 H10          6.8890    -0.8430    20.7190 hn         1 N0O       0.338500
     34 H11          3.5200     1.5680    19.8350 ha         1 N0O       0.139000
     35 H12          3.9680     4.1090    23.2670 ha         1 N0O       0.122000
     36 H13          6.3990     4.2730    22.8200 ha         1 N0O       0.125000
     37 H1           7.6270     1.3840    23.2050 h1         1 N0O       0.067200
@<TRIPOS>BOND
     1     1     6 2   
     2     1    20 1   
     3     2     6 1   
     4     2     7 1   
     5     2    21 1   
     6     3     4 1   
     7     3    12 1   
     8     3    25 1   
     9     3    37 1   
    10     4     5 1   
    11     4    10 1   
    12     4    26 1   
    13     5    11 2   
    14     5    19 1   
    15     6    19 1   
    16     7    20 2   
    17     7    27 1   
    18     8    21 ar  
    19     8    24 ar  
    20     8    28 1   
    21     9    22 ar  
    22     9    23 ar  
    23     9    29 1   
    24    10    13 ar  
    25    10    16 ar  
    26    12    13 1   
    27    13    14 ar  
    28    14    15 ar  
    29    14    30 1   
    30    15    17 ar  
    31    15    31 1   
    32    16    17 ar  
    33    16    32 1   
    34    17    18 1   
    35    19    33 1   
    36    21    22 ar  
    37    22    34 1   
    38    23    24 ar  
    39    23    35 1   
    40    24    36 1   
@<TRIPOS>SUBSTRUCTURE
     1 N0O         1 TEMP              0 ****  ****    0 ROOT
