@<TRIPOS>MOLECULE
N0O
   37    40     1     0     0
SMALL
No Charge or Current Charge


@<TRIPOS>ATOM
      1 N1           6.4860    -0.1710    18.1480 nc         1 N0O      -0.336000
      2 N3           6.5190     1.8510    19.0090 na         1 N0O      -0.293800
      3 C4           8.1680     0.1050    23.7120 c5         1 N0O       0.157600
      4 C5           8.6800    -0.4220    22.3170 c5         1 N0O      -0.112400
      5 C6           8.2850     0.6060    21.2280 c          1 N0O       0.613100
      6 C7           6.8850     0.5370    19.1930 cd         1 N0O       0.497400
      7 C8           5.7720     1.8800    17.8580 cd         1 N0O       0.401400
      8 C10          6.2880     3.7590    20.4810 ca         1 N0O      -0.103000
      9 C13          4.1890     2.4930    21.8550 ca         1 N0O      -0.104000
     10 C15         10.1500    -0.4240    22.6140 ca         1 N0O      -0.157300
     11 O1           8.6050     1.7840    21.1940 o          1 N0O      -0.543100
     12 O            9.2970     0.7330    24.4110 os         1 N0O      -0.327100
     13 C3          10.4110     0.2420    23.7890 ca         1 N0O       0.138100
     14 C2          11.7180     0.4090    24.2630 ca         1 N0O      -0.125000
     15 C1          12.7800    -0.1380    23.5130 ca         1 N0O      -0.060000
     16 C16         11.1910    -0.9750    21.8490 ca         1 N0O      -0.032000
     17 C           12.5150    -0.8290    22.3100 ca         1 N0O       0.088000
     18 Cl          13.8450    -1.5050    21.3780 cl         1 N0O      -0.206000
     19 N            7.5230    -0.0200    20.2710 ns         1 N0O      -0.497400
     20 N2           5.7980     0.6770    17.2950 nc         1 N0O      -0.355000
     21 C9           5.8790     2.4710    20.0890 ca         1 N0O      -0.017200
     22 C14          4.8160     1.8430    20.7780 ca         1 N0O      -0.103000
     23 C12          4.6110     3.7750    22.2470 ca         1 N0O      -0.100000
     24 C11          5.6590     4.4080    21.5590 ca         1 N0O      -0.104000
     25 H2           7.8220    -0.7350    24.3280 h1         1 N0O       0.067200
     26 H3           8.2840    -1.4210    22.0990 hc         1 N0O       0.079700
     27 H4           5.2360     2.7570    17.5170 h5         1 N0O       0.070100
     28 H5           7.1020     4.2540    19.9560 ha         1 N0O       0.139000
     29 H6           3.3730     2.0050    22.3840 ha         1 N0O       0.125000
     30 H7          11.9060     0.9470    25.1890 ha         1 N0O       0.137000
     31 H8          13.8050    -0.0260    23.8590 ha         1 N0O       0.133000
     32 H9          10.9850    -1.4980    20.9180 ha         1 N0O       0.137000
     33 H10          7.4780    -1.0240    20.3540 hn         1 N0O       0.338500
     34 H11          4.4710     0.8540    20.4820 ha         1 N0O       0.139000
     35 H12          4.1250     4.2770    23.0810 ha         1 N0O       0.122000
     36 H13          5.9860     5.4010    21.8600 ha         1 N0O       0.125000
     37 H1           7.3380     0.8200    23.6290 h1         1 N0O       0.067200
@<TRIPOS>BOND
     1     1     6 2   
     2     1    20 1   
     3     2     6 1   
     4     2     7 1   
     5     2    21 1   
     6     3     4 1   
     7     3    12 1   
     8     3    25 1   
     9     3    37 1   
    10     4     5 1   
    11     4    10 1   
    12     4    26 1   
    13     5    11 2   
    14     5    19 1   
    15     6    19 1   
    16     7    20 2   
    17     7    27 1   
    18     8    21 ar  
    19     8    24 ar  
    20     8    28 1   
    21     9    22 ar  
    22     9    23 ar  
    23     9    29 1   
    24    10    13 ar  
    25    10    16 ar  
    26    12    13 1   
    27    13    14 ar  
    28    14    15 ar  
    29    14    30 1   
    30    15    17 ar  
    31    15    31 1   
    32    16    17 ar  
    33    16    32 1   
    34    17    18 1   
    35    19    33 1   
    36    21    22 ar  
    37    22    34 1   
    38    23    24 ar  
    39    23    35 1   
    40    24    36 1   
@<TRIPOS>SUBSTRUCTURE
     1 N0O         1 TEMP              0 ****  ****    0 ROOT
