@<TRIPOS>MOLECULE
N0R
   47    49     1     0     0
SMALL
abcg2


@<TRIPOS>ATOM
      1 C11        -24.1100    24.3370   -24.2240 c6         1 N0R       0.089000
      2 C12        -24.4500    24.5180   -25.6940 c6         1 N0R       0.195300
      3 C01        -25.4340    26.2590   -23.6630 c6         1 N0R       0.089000
      4 C02        -25.7880    26.4680   -25.1250 c6         1 N0R       0.195300
      5 C04        -27.4290    20.9530   -18.8180 ca         1 N0R      -0.012000
      6 C05        -26.1880    21.5690   -18.6620 ca         1 N0R      -0.147500
      7 C06        -25.5600    22.1390   -19.7610 ca         1 N0R      -0.065500
      8 C07        -26.1280    22.1190   -21.0280 ca         1 N0R      -0.098300
      9 C08        -25.4240    22.7370   -22.1970 c3         1 N0R      -0.102100
     10 C14        -24.5730    26.4240   -27.2370 ca         1 N0R       0.557900
     11 C17        -24.2560    27.6570   -29.5740 ca         1 N0R       0.327000
     12 C20        -23.5100    26.4940   -29.3680 ca         1 N0R      -0.073000
     13 C21        -23.6730    25.8590   -28.1740 ca         1 N0R      -0.168000
     14 C23        -27.8860    20.3290   -16.4580 c          1 N0R       0.587100
     15 C24        -28.9070    19.5540   -15.6370 c3         1 N0R       0.068600
     16 C25        -27.3650    21.4980   -21.1720 ca         1 N0R      -0.065500
     17 C26        -28.0070    20.9250   -20.0900 ca         1 N0R      -0.147500
     18 N10        -25.1630    24.8630   -23.3850 n          1 N0R      -0.423800
     19 N13        -24.7630    25.9050   -25.9900 nh         1 N0R      -0.766300
     20 N15        -25.2560    27.5270   -27.5420 nb         1 N0R      -0.395000
     21 N16        -25.0850    28.1360   -28.6950 nb         1 N0R      -0.264000
     22 O01        -26.9510    20.8820   -15.9050 o          1 N0R      -0.585100
     23 O02        -29.8000    18.8120   -16.4280 oh         1 N0R      -0.663000
     24 O24        -26.7250    24.7040   -21.7680 o          1 N0R      -0.580100
     25 CL11       -24.1000    28.5250   -31.0610 cl         1 N0R      -0.153000
     26 H1         -23.9440    23.2790   -24.0440 h1         1 N0R       0.063700
     27 H2         -23.1730    24.8580   -24.0000 h1         1 N0R       0.063700
     28 H3         -25.2960    23.8710   -25.9580 h1         1 N0R       0.059700
     29 H4         -23.5900    24.1820   -26.2660 h1         1 N0R       0.059700
     30 H5         -24.5470    26.8510   -23.4120 h1         1 N0R       0.063700
     31 H6         -26.2540    26.6070   -23.0420 h1         1 N0R       0.063700
     32 H7         -25.8760    27.5350   -25.3120 h1         1 N0R       0.059700
     33 H8         -26.7620    26.0130   -25.3410 h1         1 N0R       0.059700
     34 H9         -25.7020    21.6050   -17.7010 ha         1 N0R       0.129000
     35 H10        -24.5920    22.6050   -19.6180 ha         1 N0R       0.111000
     36 H11        -25.6300    22.1650   -23.1070 hc         1 N0R       0.061200
     37 H12        -24.3430    22.6810   -22.0440 hc         1 N0R       0.061200
     38 H13        -22.8340    26.1150   -30.1210 ha         1 N0R       0.142000
     39 H14        -23.1130    24.9590   -27.9730 ha         1 N0R       0.130000
     40 H15        -28.3480    18.8950   -14.9660 h1         1 N0R       0.068700
     41 H16        -29.4220    20.2830   -15.0030 h1         1 N0R       0.068700
     42 H17        -27.8380    21.4540   -22.1460 ha         1 N0R       0.111000
     43 H18        -28.9690    20.4450   -20.2330 ha         1 N0R       0.129000
     44 H19        -28.9690    19.8290   -18.0530 hn         1 N0R       0.169000
     45 H20        -30.6990    19.0980   -16.2470 ho         1 N0R       0.455000
     46 C09        -25.8340    24.1870   -22.4250 c          1 N0R       0.608100
     47 N22        -28.1370    20.3380   -17.7830 ns         1 N0R      -0.136000
@<TRIPOS>BOND
     1     1     2 1   
     2     1    18 1   
     3     1    26 1   
     4     1    27 1   
     5     2    19 1   
     6     2    28 1   
     7     2    29 1   
     8     3     4 1   
     9     3    18 1   
    10     3    30 1   
    11     3    31 1   
    12     4    19 1   
    13     4    32 1   
    14     4    33 1   
    15     5     6 ar  
    16     5    17 ar  
    17     5    47 1   
    18     6     7 ar  
    19     6    34 1   
    20     7     8 ar  
    21     7    35 1   
    22     8     9 1   
    23     8    16 ar  
    24     9    36 1   
    25     9    37 1   
    26     9    46 1   
    27    10    13 ar  
    28    10    19 1   
    29    10    20 ar  
    30    11    12 ar  
    31    11    21 ar  
    32    11    25 1   
    33    12    13 ar  
    34    12    38 1   
    35    13    39 1   
    36    14    15 1   
    37    14    22 2   
    38    14    47 1   
    39    15    23 1   
    40    15    40 1   
    41    15    41 1   
    42    16    17 ar  
    43    16    42 1   
    44    17    43 1   
    45    18    46 1   
    46    20    21 ar  
    47    23    45 1   
    48    24    46 2   
    49    44    47 1   
@<TRIPOS>SUBSTRUCTURE
     1 N0R         1 TEMP              0 ****  ****    0 ROOT
