@<TRIPOS>MOLECULE
N0R
   47    49     1     0     0
SMALL
No Charge or Current Charge


@<TRIPOS>ATOM
      1 C11        -25.7740    23.4650   -24.3330 c6         1 N0R       0.089000
      2 C12        -24.7070    24.1600   -25.2220 c6         1 N0R       0.195300
      3 C01        -27.5320    24.9020   -25.4030 c6         1 N0R       0.089000
      4 C02        -26.4300    25.5670   -26.2710 c6         1 N0R       0.195300
      5 C04        -27.0360    21.4590   -19.4320 ca         1 N0R      -0.012000
      6 C05        -26.0260    21.1100   -20.3550 ca         1 N0R      -0.147500
      7 C06        -26.3000    21.0800   -21.7340 ca         1 N0R      -0.065500
      8 C07        -27.5830    21.4010   -22.2160 ca         1 N0R      -0.098300
      9 C08        -27.8830    21.3730   -23.7150 c3         1 N0R      -0.102100
     10 C14        -24.1140    26.5110   -25.8840 ca         1 N0R       0.557900
     11 C17        -22.2900    28.4350   -26.5800 ca         1 N0R       0.327000
     12 C20        -22.0530    27.6950   -25.4080 ca         1 N0R      -0.073000
     13 C21        -22.9940    26.7060   -25.0500 ca         1 N0R      -0.168000
     14 C23        -25.7270    21.2700   -17.2220 c          1 N0R       0.587100
     15 C24        -26.0000    21.4650   -15.7070 c3         1 N0R       0.068600
     16 C25        -28.5920    21.7420   -21.2980 ca         1 N0R      -0.065500
     17 C26        -28.3190    21.7710   -19.9200 ca         1 N0R      -0.147500
     18 N10        -27.1840    23.5610   -24.8360 n          1 N0R      -0.423800
     19 N13        -25.1050    25.5440   -25.5910 nh         1 N0R      -0.766300
     20 N15        -24.2860    27.2690   -27.0000 nb         1 N0R      -0.395000
     21 N16        -23.3860    28.2190   -27.3460 nb         1 N0R      -0.264000
     22 O01        -24.6250    20.9310   -17.6450 o          1 N0R      -0.585100
     23 O02        -26.8940    20.4610   -15.1560 oh         1 N0R      -0.663000
     24 O24        -29.3580    23.2080   -24.1940 o          1 N0R      -0.580100
     25 Cl11       -21.1720    29.6890   -27.1030 cl         1 N0R      -0.153000
     26 H1         -25.4700    22.4170   -24.2250 h1         1 N0R       0.063700
     27 H2         -25.7360    23.9140   -23.3300 h1         1 N0R       0.063700
     28 H3         -24.5700    23.5630   -26.1360 h1         1 N0R       0.059700
     29 H4         -23.7480    24.1450   -24.6860 h1         1 N0R       0.059700
     30 H5         -27.7650    25.5770   -24.5680 h1         1 N0R       0.063700
     31 H6         -28.4430    24.8180   -26.0110 h1         1 N0R       0.063700
     32 H7         -26.7470    26.5980   -26.4850 h1         1 N0R       0.059700
     33 H8         -26.3650    25.0370   -27.2330 h1         1 N0R       0.059700
     34 H9         -25.0230    20.8570   -20.0290 ha         1 N0R       0.129000
     35 H10        -25.5070    20.8030   -22.4250 ha         1 N0R       0.111000
     36 H11        -28.7500    20.7250   -23.8890 hc         1 N0R       0.061200
     37 H12        -27.0220    20.9610   -24.2520 hc         1 N0R       0.061200
     38 H13        -21.1740    27.8860   -24.7990 ha         1 N0R       0.142000
     39 H14        -22.8650    26.1230   -24.1450 ha         1 N0R       0.130000
     40 H15        -25.0290    21.4450   -15.1930 h1         1 N0R       0.068700
     41 H16        -26.4220    22.4710   -15.5770 h1         1 N0R       0.068700
     42 H17        -29.5920    21.9850   -21.6500 ha         1 N0R       0.111000
     43 H18        -29.1140    22.0400   -19.2280 ha         1 N0R       0.129000
     44 H19        -27.6660    21.7640   -17.5040 hn         1 N0R       0.169000
     45 H20        -26.9780    20.6340   -14.1900 ho         1 N0R       0.455000
     46 C09        -28.2100    22.7820   -24.2490 c          1 N0R       0.608100
     47 N22        -26.8370    21.5110   -18.0240 ns         1 N0R      -0.136000
@<TRIPOS>BOND
     1     1     2 1   
     2     1    18 1   
     3     1    26 1   
     4     1    27 1   
     5     2    19 1   
     6     2    28 1   
     7     2    29 1   
     8     3     4 1   
     9     3    18 1   
    10     3    30 1   
    11     3    31 1   
    12     4    19 1   
    13     4    32 1   
    14     4    33 1   
    15     5     6 ar  
    16     5    17 ar  
    17     5    47 1   
    18     6     7 ar  
    19     6    34 1   
    20     7     8 ar  
    21     7    35 1   
    22     8     9 1   
    23     8    16 ar  
    24     9    36 1   
    25     9    37 1   
    26     9    46 1   
    27    10    13 ar  
    28    10    19 1   
    29    10    20 ar  
    30    11    12 ar  
    31    11    21 ar  
    32    11    25 1   
    33    12    13 ar  
    34    12    38 1   
    35    13    39 1   
    36    14    15 1   
    37    14    22 2   
    38    14    47 1   
    39    15    23 1   
    40    15    40 1   
    41    15    41 1   
    42    16    17 ar  
    43    16    42 1   
    44    17    43 1   
    45    18    46 1   
    46    20    21 ar  
    47    23    45 1   
    48    24    46 2   
    49    44    47 1   
@<TRIPOS>SUBSTRUCTURE
     1 N0R         1 TEMP              0 ****  ****    0 ROOT
