@<TRIPOS>MOLECULE
N0T
   48    48     1     0     0
SMALL
abcg2


@<TRIPOS>ATOM
      1 C4          63.5750    28.2250    33.5330 c5         1 N0T       0.178500
      2 C5          63.1720    29.0830    34.7630 c5         1 N0T      -0.096700
      3 C6          61.6400    28.8450    34.9650 c5         1 N0T       0.145300
      4 C7          72.4800    32.5180    33.5060 c3         1 N0T      -0.088100
      5 C8          63.9790    28.7460    36.0060 c3         1 N0T       0.168600
      6 C2          61.2250    28.1030    33.6910 c5         1 N0T       0.138300
      7 C3          62.4340    27.2300    33.3950 c5         1 N0T       0.163300
      8 N7          64.8680    27.5850    33.6510 n7         1 N0T      -0.868400
      9 O9          63.4490    29.5030    37.0870 oh         1 N0T      -0.689000
     10 O10         61.3290    28.0230    36.0650 oh         1 N0T      -0.712000
     11 O11         60.0590    27.3340    33.7810 oh         1 N0T      -0.640000
     12 O12         62.4470    26.6430    32.1190 oh         1 N0T      -0.725000
     13 C16         67.3090    27.8600    33.7050 c3         1 N0T      -0.077400
     14 C17         68.4970    28.7000    33.2520 c3         1 N0T      -0.076400
     15 C18         69.8280    28.1690    33.7700 c3         1 N0T      -0.071400
     16 C19         71.0530    28.8970    33.2240 c3         1 N0T      -0.073400
     17 C20         71.1270    30.3720    33.6020 c3         1 N0T      -0.076400
     18 C1          72.4160    31.0410    33.1400 c3         1 N0T      -0.076400
     19 H1          63.5320    28.8730    32.6410 h1         1 N0T       0.038700
     20 H2          63.3330    30.1400    34.5390 hc         1 N0T       0.061700
     21 H3          61.1170    29.8060    35.0500 h1         1 N0T       0.040700
     22 H4          73.4090    32.9770    33.1650 hc         1 N0T       0.031367
     23 H5          71.6540    33.0720    33.0580 hc         1 N0T       0.031367
     24 H6          72.4210    32.6580    34.5870 hc         1 N0T       0.031367
     25 H7          63.9380    27.6720    36.2150 h1         1 N0T       0.041700
     26 H8          65.0320    28.9940    35.8470 h1         1 N0T       0.041700
     27 H9          65.8430    29.4160    33.7820 h1         1 N0T       0.029200
     28 H10         65.9870    28.6730    32.2030 h1         1 N0T       0.029200
     29 H11         61.1460    28.8470    32.8830 h1         1 N0T       0.038700
     30 H12         62.5250    26.4650    34.1830 h1         1 N0T       0.070700
     31 H13         64.8870    26.7690    33.0490 hn         1 N0T       0.428000
     32 H15         63.9290    29.2620    37.8850 ho         1 N0T       0.448000
     33 H16         61.7140    28.4500    36.8420 ho         1 N0T       0.520000
     34 H17         59.3030    27.9240    33.8560 ho         1 N0T       0.450000
     35 H18         61.7920    25.9390    32.0990 ho         1 N0T       0.522000
     36 H19         67.4100    26.8460    33.3020 hc         1 N0T       0.044700
     37 H20         67.3180    27.7590    34.7950 hc         1 N0T       0.044700
     38 H21         68.5220    28.7310    32.1570 hc         1 N0T       0.038200
     39 H22         68.3530    29.7340    33.5800 hc         1 N0T       0.038200
     40 H23         69.8360    28.2190    34.8650 hc         1 N0T       0.037700
     41 H24         69.9080    27.1060    33.5190 hc         1 N0T       0.037700
     42 H25         71.0760    28.7990    32.1330 hc         1 N0T       0.037700
     43 H26         71.9540    28.3930    33.5900 hc         1 N0T       0.037700
     44 H27         70.2750    30.9110    33.1760 hc         1 N0T       0.037700
     45 H28         71.0370    30.4740    34.6900 hc         1 N0T       0.037700
     46 H29         72.5140    30.9280    32.0550 hc         1 N0T       0.036700
     47 H30         73.2720    30.5180    33.5770 hc         1 N0T       0.036700
     48 C15         65.9750    28.4510    33.2820 c3         1 N0T       0.159800
@<TRIPOS>BOND
     1     1     2 1   
     2     1     7 1   
     3     1     8 1   
     4     1    19 1   
     5     2     3 1   
     6     2     5 1   
     7     2    20 1   
     8     3     6 1   
     9     3    10 1   
    10     3    21 1   
    11     4    18 1   
    12     4    22 1   
    13     4    23 1   
    14     4    24 1   
    15     5     9 1   
    16     5    25 1   
    17     5    26 1   
    18     6     7 1   
    19     6    11 1   
    20     6    29 1   
    21     7    12 1   
    22     7    30 1   
    23     8    31 1   
    24     8    48 1   
    25     9    32 1   
    26    10    33 1   
    27    11    34 1   
    28    12    35 1   
    29    13    14 1   
    30    13    36 1   
    31    13    37 1   
    32    13    48 1   
    33    14    15 1   
    34    14    38 1   
    35    14    39 1   
    36    15    16 1   
    37    15    40 1   
    38    15    41 1   
    39    16    17 1   
    40    16    42 1   
    41    16    43 1   
    42    17    18 1   
    43    17    44 1   
    44    17    45 1   
    45    18    46 1   
    46    18    47 1   
    47    27    48 1   
    48    28    48 1   
@<TRIPOS>SUBSTRUCTURE
     1 N0T         1 TEMP              0 ****  ****    0 ROOT
