@<TRIPOS>MOLECULE
N0T
   48    48     1     0     0
SMALL
No Charge or Current Charge


@<TRIPOS>ATOM
      1 C4          63.4860    28.0980    33.4710 c5         1 N0T       0.178500
      2 C5          63.0740    29.1180    34.5890 c5         1 N0T      -0.096700
      3 C6          61.4930    29.0430    34.5240 c5         1 N0T       0.145300
      4 C7          72.6920    32.4660    33.9660 c3         1 N0T      -0.088100
      5 C8          63.7090    28.8560    35.9940 c3         1 N0T       0.168600
      6 C2          61.1730    27.7950    33.6230 c5         1 N0T       0.138300
      7 C3          62.4700    26.9440    33.7280 c5         1 N0T       0.163300
      8 N7          64.8740    27.5960    33.6710 n7         1 N0T      -0.868400
      9 O9          63.1570    29.7550    36.9720 oh         1 N0T      -0.689000
     10 O10         60.9140    28.9070    35.8260 oh         1 N0T      -0.712000
     11 O11         60.0010    27.1130    34.0750 oh         1 N0T      -0.640000
     12 O12         62.5240    25.8850    32.7540 oh         1 N0T      -0.725000
     13 C16         67.3250    27.8740    33.5420 c3         1 N0T      -0.077400
     14 C17         68.5050    28.7820    33.1310 c3         1 N0T      -0.076400
     15 C18         69.8850    28.1510    33.4310 c3         1 N0T      -0.071400
     16 C19         71.0930    28.9930    32.9530 c3         1 N0T      -0.073400
     17 C20         71.2600    30.3470    33.6830 c3         1 N0T      -0.076400
     18 C1          72.5240    31.1160    33.2420 c3         1 N0T      -0.076400
     19 H1          63.3580    28.5180    32.4620 h1         1 N0T       0.038700
     20 H2          63.4060    30.1220    34.3040 hc         1 N0T       0.061700
     21 H3          61.0980    29.9490    34.0420 h1         1 N0T       0.040700
     22 H4          73.6010    32.9740    33.6210 hc         1 N0T       0.031367
     23 H5          71.8360    33.1220    33.7670 hc         1 N0T       0.031367
     24 H6          72.7710    32.3190    35.0490 hc         1 N0T       0.031367
     25 H7          63.5330    27.8150    36.2960 h1         1 N0T       0.041700
     26 H8          64.7960    29.0010    35.9280 h1         1 N0T       0.041700
     27 H9          65.8780    29.4640    33.7820 h1         1 N0T       0.029200
     28 H10         65.8740    28.7160    32.1720 h1         1 N0T       0.029200
     29 H11         61.0270    28.1220    32.5830 h1         1 N0T       0.038700
     30 H12         62.5840    26.5310    34.7410 h1         1 N0T       0.070700
     31 H13         64.9660    26.7290    33.1260 hn         1 N0T       0.428000
     32 H15         63.7910    29.7810    37.7270 ho         1 N0T       0.448000
     33 H16         61.6160    29.2810    36.4340 ho         1 N0T       0.520000
     34 H17         59.8470    27.5150    34.9650 ho         1 N0T       0.450000
     35 H18         61.6550    25.4200    32.8150 ho         1 N0T       0.522000
     36 H19         67.4040    26.9170    33.0110 hc         1 N0T       0.044700
     37 H20         67.3970    27.6550    34.6150 hc         1 N0T       0.044700
     38 H21         68.4330    29.0010    32.0580 hc         1 N0T       0.038200
     39 H22         68.4140    29.7370    33.6610 hc         1 N0T       0.038200
     40 H23         69.9760    27.9690    34.5090 hc         1 N0T       0.037700
     41 H24         69.9370    27.1690    32.9430 hc         1 N0T       0.037700
     42 H25         71.0060    29.1700    31.8740 hc         1 N0T       0.037700
     43 H26         72.0040    28.4000    33.1000 hc         1 N0T       0.037700
     44 H27         70.3820    30.9760    33.4960 hc         1 N0T       0.037700
     45 H28         71.3050    30.1700    34.7650 hc         1 N0T       0.037700
     46 H29         72.4830    31.2940    32.1600 hc         1 N0T       0.036700
     47 H30         73.4110    30.4990    33.4310 hc         1 N0T       0.036700
     48 C15         65.9520    28.5070    33.2480 c3         1 N0T       0.159800
@<TRIPOS>BOND
     1     1     2 1   
     2     1     7 1   
     3     1     8 1   
     4     1    19 1   
     5     2     3 1   
     6     2     5 1   
     7     2    20 1   
     8     3     6 1   
     9     3    10 1   
    10     3    21 1   
    11     4    18 1   
    12     4    22 1   
    13     4    23 1   
    14     4    24 1   
    15     5     9 1   
    16     5    25 1   
    17     5    26 1   
    18     6     7 1   
    19     6    11 1   
    20     6    29 1   
    21     7    12 1   
    22     7    30 1   
    23     8    31 1   
    24     8    48 1   
    25     9    32 1   
    26    10    33 1   
    27    11    34 1   
    28    12    35 1   
    29    13    14 1   
    30    13    36 1   
    31    13    37 1   
    32    13    48 1   
    33    14    15 1   
    34    14    38 1   
    35    14    39 1   
    36    15    16 1   
    37    15    40 1   
    38    15    41 1   
    39    16    17 1   
    40    16    42 1   
    41    16    43 1   
    42    17    18 1   
    43    17    44 1   
    44    17    45 1   
    45    18    46 1   
    46    18    47 1   
    47    27    48 1   
    48    28    48 1   
@<TRIPOS>SUBSTRUCTURE
     1 N0T         1 TEMP              0 ****  ****    0 ROOT
