@<TRIPOS>MOLECULE
N0U
   60    64     1     0     0
SMALL
No Charge or Current Charge


@<TRIPOS>ATOM
      1 C1         -28.3560    -4.7580    27.0040 ca         1 N0U      -0.034300
      2 C2         -29.4200    -5.6700    26.9060 ca         1 N0U      -0.121000
      3 C3         -29.7120    -6.2910    25.6890 ca         1 N0U      -0.090000
      4 C7         -26.4280    -3.4210    25.9640 c6         1 N0U       0.168000
      5 C8         -25.4470    -3.4400    24.7700 c6         1 N0U      -0.090400
      6 C9         -26.2030    -3.4820    23.4350 c6         1 N0U      -0.066400
      7 C10        -27.0410    -4.7720    23.3510 c6         1 N0U      -0.042100
      8 C13        -28.2760     0.0590    26.1030 ca         1 N0U       0.331500
      9 C14        -27.5670     1.0780    25.4130 ca         1 N0U      -0.200300
     10 C15        -27.7990     2.4230    25.7640 ca         1 N0U      -0.031000
     11 C16        -28.7220     2.7040    26.7800 ca         1 N0U      -0.162000
     12 C19        -29.2990    -6.7380    23.2690 cp         1 N0U       0.004000
     13 C20        -28.3720    -7.6180    22.6320 ca         1 N0U      -0.143000
     14 C21        -28.7050    -8.2980    21.4420 ca         1 N0U      -0.037000
     15 C22        -29.9840    -8.0800    20.9130 ca         1 N0U      -0.233900
     16 C24        -30.8840    -7.2590    21.5080 ca         1 N0U      -0.034200
     17 F1         -25.3590     1.2610    24.5500 f          1 N0U      -0.115500
     18 C18        -26.5830     0.7490    24.2920 c3         1 N0U       0.234600
     19 F          -26.9900     1.2800    23.1170 f          1 N0U      -0.115500
     20 C17        -29.3870     1.6440    27.4110 ca         1 N0U       0.357900
     21 N1         -29.1750     0.3500    27.0870 nb         1 N0U      -0.655000
     22 O          -28.8320    -2.0200    25.0420 o          1 N0U      -0.565100
     23 N          -26.8510    -2.0170    26.2640 n          1 N0U      -0.395800
     24 C6         -27.5790    -4.4530    25.8540 ca         1 N0U      -0.082300
     25 C          -28.0860    -4.1130    28.3640 c3         1 N0U      -0.049800
     26 C5         -27.8740    -5.0920    24.6110 ca         1 N0U      -0.058300
     27 C4         -28.9460    -6.0290    24.5340 cp         1 N0U      -0.049000
     28 C25        -30.5860    -6.5700    22.6900 ca         1 N0U      -0.122000
     29 N3         -32.0420    -7.2650    20.7530 na         1 N0U      -0.064400
     30 N2         -31.8930    -8.1130    19.6380 nc         1 N0U      -0.518100
     31 C23        -30.6460    -8.6010    19.7430 cd         1 N0U       0.359900
     32 C26        -30.0920    -9.5630    18.7300 c3         1 N0U      -0.101400
     33 H1         -30.0260    -5.9020    27.7780 ha         1 N0U       0.113000
     34 H2         -30.5360    -6.9990    25.6360 ha         1 N0U       0.117000
     35 H3         -25.8240    -3.7570    26.8180 h1         1 N0U       0.053700
     36 H4         -24.8010    -4.3260    24.8460 hc         1 N0U       0.056200
     37 H5         -24.7780    -2.5690    24.8060 hc         1 N0U       0.056200
     38 H6         -25.4940    -3.4440    22.5970 hc         1 N0U       0.046200
     39 H7         -26.8500    -2.6010    23.3320 hc         1 N0U       0.046200
     40 H8         -27.6970    -4.7030    22.4740 hc         1 N0U       0.052700
     41 H9         -26.3620    -5.6130    23.1570 hc         1 N0U       0.052700
     42 H10        -26.6300    -0.9390    28.0830 h1         1 N0U       0.044700
     43 H11        -25.1990    -1.8900    27.6180 h1         1 N0U       0.044700
     44 H12        -25.5730    -0.3860    26.7490 h1         1 N0U       0.044700
     45 H13        -27.2770     3.2320    25.2560 ha         1 N0U       0.138000
     46 H14        -28.9270     3.7280    27.0770 ha         1 N0U       0.132000
     47 H15        -27.3930    -7.7760    23.0770 ha         1 N0U       0.117000
     48 H16        -27.9970    -8.9680    20.9580 ha         1 N0U       0.118000
     49 H17        -26.4730    -0.3310    24.1530 h2         1 N0U       0.068700
     50 H18        -30.1110     1.8350    28.2020 h4         1 N0U       0.027100
     51 H19        -28.3440    -3.0480    28.3560 hc         1 N0U       0.047367
     52 H20        -28.6790    -4.5800    29.1590 hc         1 N0U       0.047367
     53 H21        -27.0350    -4.2090    28.6570 hc         1 N0U       0.047367
     54 H22        -31.3200    -5.9140    23.1520 ha         1 N0U       0.126000
     55 H23        -32.9000    -6.7470    20.9410 hn         1 N0U       0.377000
     56 H24        -30.7780    -9.7010    17.8860 hc         1 N0U       0.049033
     57 H25        -29.1380    -9.2000    18.3330 hc         1 N0U       0.049033
     58 H26        -29.9170   -10.5440    19.1860 hc         1 N0U       0.049033
     59 C11        -26.0150    -1.2640    27.2340 c3         1 N0U       0.088300
     60 C12        -28.0420    -1.4150    25.7600 c          1 N0U       0.508600
@<TRIPOS>BOND
     1     1     2 ar  
     2     1    24 ar  
     3     1    25 1   
     4     2     3 ar  
     5     2    33 1   
     6     3    27 ar  
     7     3    34 1   
     8     4     5 1   
     9     4    23 1   
    10     4    24 1   
    11     4    35 1   
    12     5     6 1   
    13     5    36 1   
    14     5    37 1   
    15     6     7 1   
    16     6    38 1   
    17     6    39 1   
    18     7    26 1   
    19     7    40 1   
    20     7    41 1   
    21     8     9 ar  
    22     8    21 ar  
    23     8    60 1   
    24     9    10 ar  
    25     9    18 1   
    26    10    11 ar  
    27    10    45 1   
    28    11    20 ar  
    29    11    46 1   
    30    12    13 ar  
    31    12    27 1   
    32    12    28 ar  
    33    13    14 ar  
    34    13    47 1   
    35    14    15 ar  
    36    14    48 1   
    37    15    16 ar  
    38    15    31 1   
    39    16    28 ar  
    40    16    29 1   
    41    17    18 1   
    42    18    19 1   
    43    18    49 1   
    44    20    21 ar  
    45    20    50 1   
    46    22    60 2   
    47    23    59 1   
    48    23    60 1   
    49    24    26 ar  
    50    25    51 1   
    51    25    52 1   
    52    25    53 1   
    53    26    27 ar  
    54    28    54 1   
    55    29    30 1   
    56    29    55 1   
    57    30    31 2   
    58    31    32 1   
    59    32    56 1   
    60    32    57 1   
    61    32    58 1   
    62    42    59 1   
    63    43    59 1   
    64    44    59 1   
@<TRIPOS>SUBSTRUCTURE
     1 N0U         1 TEMP              0 ****  ****    0 ROOT
