@<TRIPOS>MOLECULE
N0U
   60    64     1     0     0
SMALL
bcc


@<TRIPOS>ATOM
      1 C1         -29.2960    -3.9510    26.2170 ca         1 N0U      -0.034300
      2 C2         -30.3310    -4.8830    26.1340 ca         1 N0U      -0.139000
      3 C3         -30.4390    -5.7770    25.0870 ca         1 N0U      -0.108000
      4 C7         -27.2030    -2.9420    24.9930 c6         1 N0U       0.168000
      5 C8         -27.1550    -2.3630    23.5640 c6         1 N0U      -0.090400
      6 C9         -27.1810    -3.4590    22.4910 c6         1 N0U      -0.066400
      7 C10        -27.3500    -4.8510    23.0980 c6         1 N0U      -0.042100
      8 C13        -27.4120     0.3150    26.9590 ca         1 N0U       0.396800
      9 C14        -26.6300     1.3830    26.5340 ca         1 N0U      -0.265600
     10 C15        -26.4050     2.4220    27.4310 ca         1 N0U      -0.049000
     11 C16        -26.9620     2.3490    28.6940 ca         1 N0U      -0.245300
     12 C19        -29.5470    -6.8420    23.0340 cp         1 N0U       0.004000
     13 C20        -28.6150    -7.9080    23.0420 ca         1 N0U      -0.161000
     14 C21        -28.6540    -8.9070    22.0980 ca         1 N0U      -0.055000
     15 C22        -29.6440    -8.8510    21.1090 ca         1 N0U      -0.233900
     16 C24        -30.5670    -7.7940    21.1120 ca         1 N0U      -0.034200
     17 F1         -24.8370     1.9930    25.1520 f          1 N0U      -0.236800
     18 C18        -26.0780     1.4380    25.1440 c3         1 N0U       0.477200
     19 F          -26.8580     2.2440    24.3690 f          1 N0U      -0.236800
     20 C17        -27.7270     1.2370    29.0160 ca         1 N0U       0.423200
     21 N1         -27.9490     0.2410    28.1690 nb         1 N0U      -0.655000
     22 O          -28.8010    -0.6310    25.3320 o          1 N0U      -0.565100
     23 N          -27.0270    -1.8910    25.9930 n          1 N0U      -0.462800
     24 C6         -28.3720    -3.9040    25.1620 ca         1 N0U      -0.082300
     25 C          -29.2470    -3.1200    27.4730 c3         1 N0U      -0.049800
     26 C5         -28.4360    -4.8660    24.1340 ca         1 N0U      -0.058300
     27 C4         -29.4710    -5.8030    24.0920 cp         1 N0U      -0.049000
     28 C25        -30.5360    -6.7780    22.0740 ca         1 N0U      -0.140000
     29 N3         -31.3770    -8.0110    20.0520 na         1 N0U      -0.014100
     30 N2         -31.0430    -9.1190    19.3780 nc         1 N0U      -0.518100
     31 C23        -30.0090    -9.6480    19.9840 cd         1 N0U       0.359900
     32 C26        -29.3590   -10.8980    19.5080 c3         1 N0U      -0.101400
     33 H1         -31.0630    -4.9200    26.9320 ha         1 N0U       0.131000
     34 H2         -31.2550    -6.4900    25.0680 ha         1 N0U       0.135000
     35 H3         -26.2990    -3.5510    25.0960 h1         1 N0U       0.053700
     36 H4         -26.2420    -1.7680    23.4860 hc         1 N0U       0.056200
     37 H5         -27.9890    -1.6830    23.4200 hc         1 N0U       0.056200
     38 H6         -26.2670    -3.4380    21.8970 hc         1 N0U       0.046200
     39 H7         -28.0040    -3.2790    21.7990 hc         1 N0U       0.046200
     40 H8         -27.5490    -5.5740    22.3090 hc         1 N0U       0.052700
     41 H9         -26.4060    -5.1610    23.5620 hc         1 N0U       0.052700
     42 H10        -25.8270    -1.3160    27.6380 h1         1 N0U       0.044700
     43 H11        -25.9230    -3.0420    27.3400 h1         1 N0U       0.044700
     44 H12        -24.9460    -2.0180    26.2780 h1         1 N0U       0.044700
     45 H13        -25.8000     3.2760    27.1550 ha         1 N0U       0.156000
     46 H14        -26.8070     3.1350    29.4200 ha         1 N0U       0.150000
     47 H15        -27.8580    -7.9310    23.8160 ha         1 N0U       0.135000
     48 H16        -27.9350    -9.7170    22.1220 ha         1 N0U       0.136000
     49 H17        -26.0050     0.4630    24.6580 h2         1 N0U       0.068700
     50 H18        -28.1770     1.1450    29.9970 h4         1 N0U       0.027100
     51 H19        -29.5760    -2.0940    27.3170 hc         1 N0U       0.047367
     52 H20        -29.9190    -3.5530    28.2140 hc         1 N0U       0.047367
     53 H21        -28.2570    -3.0900    27.9220 hc         1 N0U       0.047367
     54 H22        -31.2500    -5.9640    22.0620 ha         1 N0U       0.144000
     55 H23        -32.1540    -7.4520    19.7410 hn         1 N0U       0.326700
     56 H24        -29.8560   -11.2800    18.6180 hc         1 N0U       0.049033
     57 H25        -28.3090   -10.7280    19.2650 hc         1 N0U       0.049033
     58 H26        -29.3890   -11.6750    20.2740 hc         1 N0U       0.049033
     59 C11        -25.8710    -2.0670    26.8550 c3         1 N0U       0.088300
     60 C12        -27.7990    -0.7960    26.0120 c          1 N0U       0.575600
@<TRIPOS>BOND
     1     1     2 ar  
     2     1    24 ar  
     3     1    25 1   
     4     2     3 ar  
     5     2    33 1   
     6     3    27 ar  
     7     3    34 1   
     8     4     5 1   
     9     4    23 1   
    10     4    24 1   
    11     4    35 1   
    12     5     6 1   
    13     5    36 1   
    14     5    37 1   
    15     6     7 1   
    16     6    38 1   
    17     6    39 1   
    18     7    26 1   
    19     7    40 1   
    20     7    41 1   
    21     8     9 ar  
    22     8    21 ar  
    23     8    60 1   
    24     9    10 ar  
    25     9    18 1   
    26    10    11 ar  
    27    10    45 1   
    28    11    20 ar  
    29    11    46 1   
    30    12    13 ar  
    31    12    27 1   
    32    12    28 ar  
    33    13    14 ar  
    34    13    47 1   
    35    14    15 ar  
    36    14    48 1   
    37    15    16 ar  
    38    15    31 1   
    39    16    28 ar  
    40    16    29 1   
    41    17    18 1   
    42    18    19 1   
    43    18    49 1   
    44    20    21 ar  
    45    20    50 1   
    46    22    60 2   
    47    23    59 1   
    48    23    60 1   
    49    24    26 ar  
    50    25    51 1   
    51    25    52 1   
    52    25    53 1   
    53    26    27 ar  
    54    28    54 1   
    55    29    30 1   
    56    29    55 1   
    57    30    31 2   
    58    31    32 1   
    59    32    56 1   
    60    32    57 1   
    61    32    58 1   
    62    42    59 1   
    63    43    59 1   
    64    44    59 1   
@<TRIPOS>SUBSTRUCTURE
     1 N0U         1 TEMP              0 ****  ****    0 ROOT
