@<TRIPOS>MOLECULE
N0V
   90    97     1     0     0
SMALL
abcg2


@<TRIPOS>ATOM
      1 C18         -9.8740     7.0370    -0.2690 cx         1 N0V      -0.121900
      2 C14         -7.8270     5.6030     0.4520 ca         1 N0V       0.381300
      3 C12         -6.3030     4.4550     1.7060 ca         1 N0V       0.337900
      4 C17         -8.8120     7.2680    -1.2850 cx         1 N0V      -0.121900
      5 C16         -8.4270     6.9170     0.1290 cx         1 N0V      -0.185000
      6 C15         -8.2280     4.4290    -0.1820 ca         1 N0V      -0.141000
      7 C11         -6.6380     3.2420     1.1340 ca         1 N0V      -0.153000
      8 C10         -7.6300     3.2190     0.1540 ca         1 N0V      -0.048900
      9 C5          -6.6140    -1.7870    -1.4800 ca         1 N0V      -0.117000
     10 C6          -7.8850    -1.3640    -1.7680 ca         1 N0V      -0.103000
     11 C1          -8.2240    -0.0670    -1.3730 ca         1 N0V      -0.071200
     12 C4          -5.6680    -0.9610    -0.8180 ca         1 N0V      -0.050000
     13 C20         -3.2720    -0.9810    -0.1580 c          1 N0V       0.611100
     14 C21         -2.0870    -1.9420    -0.0320 c5         1 N0V      -0.133000
     15 C2          -7.3170     0.7640    -0.7000 ca         1 N0V      -0.182900
     16 C3          -6.0140     0.3180    -0.4260 ca         1 N0V      -0.072000
     17 N7          -9.3610     0.6550    -1.5190 na         1 N0V      -0.048400
     18 N8          -9.2570     1.8680    -1.0010 nc         1 N0V      -0.507100
     19 C9          -8.0460     1.9760    -0.4930 cd         1 N0V       0.387500
     20 N13         -6.8720     5.6110     1.3820 nb         1 N0V      -0.670000
     21 O22         -3.1900     0.1910     0.1730 o          1 N0V      -0.599100
     22 C23         -0.7490    -1.1970    -0.1100 c5         1 N0V       0.159800
     23 N24          0.1250    -1.9890     0.7360 n3         1 N0V      -0.698600
     24 C25         -0.6610    -2.2190     1.9360 c5         1 N0V       0.155800
     25 C26         -2.0540    -2.5570     1.4010 c5         1 N0V      -0.064400
     26 C27         -2.0520    -3.0280    -1.1100 c3         1 N0V       0.155600
     27 C28          1.3970    -1.3580     0.9430 c3         1 N0V       0.092800
     28 C29          2.4280    -2.2980     1.5560 c          1 N0V       0.609100
     29 O30          2.1750    -3.4760     1.7550 o          1 N0V      -0.585100
     30 N31          3.6230    -1.7510     1.8680 n          1 N0V      -0.417800
     31 C32          4.6710    -2.5330     2.4950 c6         1 N0V       0.097000
     32 C33          5.8770    -2.6410     1.5770 c6         1 N0V      -0.062200
     33 C34          6.2810    -1.2820     1.0660 ce         1 N0V      -0.042400
     34 C35          5.4100    -0.2710     1.1120 c2         1 N0V      -0.238200
     35 C36          3.9990    -0.3800     1.5980 c6         1 N0V       0.139200
     36 C37          7.6420    -1.1150     0.5200 ca         1 N0V      -0.029800
     37 C38          8.3490    -2.2160     0.0290 ca         1 N0V      -0.118500
     38 C39          9.6180    -2.0770    -0.5060 ca         1 N0V      -0.065000
     39 C40         10.2350    -0.8290    -0.5630 cp         1 N0V      -0.151500
     40 C41          9.5410     0.2740    -0.0610 ca         1 N0V      -0.065000
     41 C42          8.2750     0.1320     0.4720 ca         1 N0V      -0.118500
     42 C43         11.5880    -0.6750    -1.1340 cp         1 N0V       0.195500
     43 N44         12.2040    -1.7720    -1.5670 nb         1 N0V      -0.180000
     44 C45         13.4160    -1.6260    -2.0820 ca         1 N0V       0.115900
     45 C46         14.0350    -0.3910    -2.1770 ca         1 N0V      -0.224000
     46 C47         13.3120     0.6870    -1.6980 ca         1 N0V       0.115900
     47 N48         12.1010     0.5520    -1.1800 nb         1 N0V      -0.180000
     48 O49         -3.1270    -3.9300    -0.9660 os         1 N0V      -0.480000
     49 C50         -3.1330    -4.9350    -1.9550 c3         1 N0V       0.146900
     50 H1         -10.4220     7.8900     0.1100 hc         1 N0V       0.073450
     51 H2         -10.4570     6.1250    -0.3300 hc         1 N0V       0.073450
     52 H3          -5.5370     4.4940     2.4720 h4         1 N0V       0.018100
     53 H4          -8.6570     6.5160    -2.0500 hc         1 N0V       0.073450
     54 H5          -8.6200     8.2820    -1.6120 hc         1 N0V       0.073450
     55 H6          -8.0260     7.7240     0.7290 hc         1 N0V       0.099700
     56 H7          -8.9990     4.4500    -0.9410 ha         1 N0V       0.133000
     57 H8          -6.1500     2.3400     1.4760 ha         1 N0V       0.131000
     58 H9          -6.3190    -2.7850    -1.7800 ha         1 N0V       0.113000
     59 H10         -8.5840    -2.0070    -2.2840 ha         1 N0V       0.121000
     60 H12         -5.3010     0.9540     0.0700 ha         1 N0V       0.155000
     61 H13        -10.2240     0.3700    -1.9530 hn         1 N0V       0.378000
     62 H14         -4.3470    -2.5340    -0.8420 hn         1 N0V       0.181000
     63 H16         -0.3590    -1.1390    -1.1310 h1         1 N0V       0.056700
     64 H17         -0.8620    -0.1690     0.2590 h1         1 N0V       0.056700
     65 H19         -0.2400    -3.0200     2.5420 h1         1 N0V       0.050700
     66 H20         -0.7050    -1.3140     2.5640 h1         1 N0V       0.050700
     67 H21         -2.8320    -2.1510     2.0470 hc         1 N0V       0.063700
     68 H22         -2.2150    -3.6340     1.3560 hc         1 N0V       0.063700
     69 H23         -2.0750    -2.5630    -2.1060 h1         1 N0V       0.046700
     70 H24         -1.0980    -3.5630    -1.0230 h1         1 N0V       0.046700
     71 H25          1.7760    -1.0240    -0.0290 h1         1 N0V       0.049200
     72 H26          1.3160    -0.4480     1.5630 h1         1 N0V       0.049200
     73 H27          4.9630    -2.0390     3.4270 h1         1 N0V       0.062700
     74 H28          4.2870    -3.5160     2.7500 h1         1 N0V       0.062700
     75 H29          6.7010    -3.0950     2.1310 hc         1 N0V       0.062200
     76 H30          5.6560    -3.3190     0.7460 hc         1 N0V       0.062200
     77 H32          5.6820     0.7170     0.7610 ha         1 N0V       0.183000
     78 H34          3.3540     0.0540     0.8360 h1         1 N0V       0.051700
     79 H35          3.8730     0.2430     2.4930 h1         1 N0V       0.051700
     80 H36          7.9030    -3.2020     0.0490 ha         1 N0V       0.115000
     81 H37         10.1340    -2.9490    -0.8830 ha         1 N0V       0.135000
     82 H38         10.0020     1.2520    -0.0820 ha         1 N0V       0.135000
     83 H39          7.7820     1.0080     0.8730 ha         1 N0V       0.115000
     84 H40         13.9090    -2.5260    -2.4310 h4         1 N0V       0.025100
     85 H41         15.0220    -0.2760    -2.6000 ha         1 N0V       0.136000
     86 H42         13.7190     1.6920    -1.7320 h4         1 N0V       0.025100
     87 H43         -3.2030    -4.5130    -2.9620 h1         1 N0V       0.035367
     88 H44         -2.2300    -5.5510    -1.9030 h1         1 N0V       0.035367
     89 H45         -4.0000    -5.5700    -1.7800 h1         1 N0V       0.035367
     90 N19         -4.4150    -1.5470    -0.6100 ns         1 N0V      -0.146000
@<TRIPOS>BOND
     1     1     4 1   
     2     1     5 1   
     3     1    50 1   
     4     1    51 1   
     5     2     5 1   
     6     2     6 ar  
     7     2    20 ar  
     8     3     7 ar  
     9     3    20 ar  
    10     3    52 1   
    11     4     5 1   
    12     4    53 1   
    13     4    54 1   
    14     5    55 1   
    15     6     8 ar  
    16     6    56 1   
    17     7     8 ar  
    18     7    57 1   
    19     8    19 1   
    20     9    10 ar  
    21     9    12 ar  
    22     9    58 1   
    23    10    11 ar  
    24    10    59 1   
    25    11    15 ar  
    26    11    17 1   
    27    12    16 ar  
    28    12    90 1   
    29    13    14 1   
    30    13    21 2   
    31    13    90 1   
    32    14    22 1   
    33    14    25 1   
    34    14    26 1   
    35    15    16 ar  
    36    15    19 1   
    37    16    60 1   
    38    17    18 1   
    39    17    61 1   
    40    18    19 2   
    41    22    23 1   
    42    22    63 1   
    43    22    64 1   
    44    23    24 1   
    45    23    27 1   
    46    24    25 1   
    47    24    65 1   
    48    24    66 1   
    49    25    67 1   
    50    25    68 1   
    51    26    48 1   
    52    26    69 1   
    53    26    70 1   
    54    27    28 1   
    55    27    71 1   
    56    27    72 1   
    57    28    29 2   
    58    28    30 1   
    59    30    31 1   
    60    30    35 1   
    61    31    32 1   
    62    31    73 1   
    63    31    74 1   
    64    32    33 1   
    65    32    75 1   
    66    32    76 1   
    67    33    34 2   
    68    33    36 1   
    69    34    35 1   
    70    34    77 1   
    71    35    78 1   
    72    35    79 1   
    73    36    37 ar  
    74    36    41 ar  
    75    37    38 ar  
    76    37    80 1   
    77    38    39 ar  
    78    38    81 1   
    79    39    40 ar  
    80    39    42 1   
    81    40    41 ar  
    82    40    82 1   
    83    41    83 1   
    84    42    43 ar  
    85    42    47 ar  
    86    43    44 ar  
    87    44    45 ar  
    88    44    84 1   
    89    45    46 ar  
    90    45    85 1   
    91    46    47 ar  
    92    46    86 1   
    93    48    49 1   
    94    49    87 1   
    95    49    88 1   
    96    49    89 1   
    97    62    90 1   
@<TRIPOS>SUBSTRUCTURE
     1 N0V         1 TEMP              0 ****  ****    0 ROOT
