@<TRIPOS>MOLECULE
N0V
   90    97     1     0     0
SMALL
No Charge or Current Charge


@<TRIPOS>ATOM
      1 C18         -8.0290     7.7710    -0.7680 cx         1 N0V      -0.121900
      2 C14         -6.5280     5.8080     0.1990 ca         1 N0V       0.381300
      3 C12         -5.4430     4.4350     1.7190 ca         1 N0V       0.337900
      4 C17         -6.9640     7.4940    -1.8020 cx         1 N0V      -0.121900
      5 C16         -6.6880     7.2090    -0.3400 cx         1 N0V      -0.185000
      6 C15         -7.2840     4.7230    -0.2910 ca         1 N0V      -0.141000
      7 C11         -6.1540     3.3050     1.2850 ca         1 N0V      -0.153000
      8 C10         -7.0830     3.4300     0.2330 ca         1 N0V      -0.048900
      9 C5          -7.3020    -1.8290    -0.7450 ca         1 N0V      -0.117000
     10 C6          -8.5180    -1.1560    -0.9850 ca         1 N0V      -0.103000
     11 C1          -8.5560     0.2230    -0.7510 ca         1 N0V      -0.071200
     12 C4          -6.1540    -1.1260    -0.2980 ca         1 N0V      -0.050000
     13 C20         -3.7430    -1.5550     0.4870 c          1 N0V       0.611100
     14 C21         -2.7080    -2.7310     0.3610 c5         1 N0V      -0.133000
     15 C2          -7.4690     0.9050    -0.3050 ca         1 N0V      -0.182900
     16 C3          -6.2310     0.2760    -0.0900 ca         1 N0V      -0.072000
     17 N7          -9.5890     1.1200    -0.9550 na         1 N0V      -0.048400
     18 N8          -9.1720     2.4260    -0.6430 nc         1 N0V      -0.507100
     19 C9          -7.9010     2.2880    -0.2270 cd         1 N0V       0.387500
     20 N13         -5.6170     5.6650     1.1880 nb         1 N0V      -0.670000
     21 O22         -3.5210    -0.4820     1.0410 o          1 N0V      -0.599100
     22 C23         -1.4320    -2.1220    -0.3110 c5         1 N0V       0.159800
     23 N24         -0.3340    -2.7200     0.4780 n3         1 N0V      -0.698600
     24 C25         -0.7800    -2.4950     1.8690 c5         1 N0V       0.155800
     25 C26         -2.1970    -3.1100     1.8070 c5         1 N0V      -0.064400
     26 C27         -3.1980    -3.9820    -0.4300 c3         1 N0V       0.155600
     27 C28          1.0370    -2.2160     0.1400 c3         1 N0V       0.092800
     28 C29          2.2910    -2.9020     0.7890 c          1 N0V       0.609100
     29 O30          2.1890    -3.7360     1.6850 o          1 N0V      -0.585100
     30 N31          3.5710    -2.5710     0.2800 n          1 N0V      -0.417800
     31 C32          4.7930    -3.2450     0.8160 c6         1 N0V       0.097000
     32 C33          6.0690    -3.0370    -0.0320 c6         1 N0V      -0.062200
     33 C34          6.2730    -1.5580    -0.3350 ce         1 N0V      -0.042400
     34 C35          5.1810    -0.8150    -0.6010 c2         1 N0V      -0.238200
     35 C36          3.7800    -1.4040    -0.6310 c6         1 N0V       0.139200
     36 C37          7.6570    -0.9980    -0.3070 ca         1 N0V      -0.029800
     37 C38          8.7400    -1.7330    -0.8220 ca         1 N0V      -0.118500
     38 C39         10.0420    -1.2040    -0.7970 ca         1 N0V      -0.065000
     39 C40         10.3110     0.0830    -0.2540 cp         1 N0V      -0.151500
     40 C41          9.2010     0.8090     0.2610 ca         1 N0V      -0.065000
     41 C42          7.9000     0.2780     0.2330 ca         1 N0V      -0.118500
     42 C43         11.7090     0.6520    -0.2260 cp         1 N0V       0.195500
     43 N44         12.7100    -0.1040    -0.7350 nb         1 N0V      -0.180000
     44 C45         13.9590     0.4030    -0.7110 ca         1 N0V       0.115900
     45 C46         14.2190     1.6740    -0.1750 ca         1 N0V      -0.224000
     46 C47         13.1270     2.3950     0.3330 ca         1 N0V       0.115900
     47 N48         11.8800     1.8840     0.3070 nb         1 N0V      -0.180000
     48 O49         -4.3030    -4.5780     0.2740 os         1 N0V      -0.480000
     49 C50         -4.8310    -5.7670    -0.3390 c3         1 N0V       0.146900
     50 H1          -8.2420     8.8100    -0.5260 hc         1 N0V       0.073450
     51 H2          -8.8970     7.1160    -0.7440 hc         1 N0V       0.073450
     52 H3          -4.7190     4.3550     2.5290 h4         1 N0V       0.018100
     53 H4          -7.1150     6.6530    -2.4750 hc         1 N0V       0.073450
     54 H5          -6.4640     8.3480    -2.2540 hc         1 N0V       0.073450
     55 H6          -6.0220     7.9100     0.1580 hc         1 N0V       0.099700
     56 H7          -8.0120     4.8810    -1.0810 ha         1 N0V       0.133000
     57 H8          -5.9930     2.3560     1.7850 ha         1 N0V       0.131000
     58 H9          -7.2470    -2.9020    -0.9170 ha         1 N0V       0.113000
     59 H10         -9.3930    -1.6910    -1.3470 ha         1 N0V       0.121000
     60 H12         -5.3640     0.8590     0.2020 ha         1 N0V       0.155000
     61 H13        -10.5260     0.9100    -1.2970 hn         1 N0V       0.378000
     62 H14         -5.0170    -2.8270    -0.4390 hn         1 N0V       0.181000
     63 H16         -1.3610    -2.3770    -1.3780 h1         1 N0V       0.056700
     64 H17         -1.4030    -1.0250    -0.2390 h1         1 N0V       0.056700
     65 H19         -0.1500    -3.0000     2.6130 h1         1 N0V       0.050700
     66 H20         -0.8150    -1.4240     2.1180 h1         1 N0V       0.050700
     67 H21         -2.8430    -2.7390     2.6110 hc         1 N0V       0.063700
     68 H22         -2.1340    -4.1970     1.9370 hc         1 N0V       0.063700
     69 H23         -3.4900    -3.6910    -1.4490 h1         1 N0V       0.046700
     70 H24         -2.3690    -4.6980    -0.5140 h1         1 N0V       0.046700
     71 H25          1.1820    -2.2990    -0.9450 h1         1 N0V       0.049200
     72 H26          1.0990    -1.1480     0.3840 h1         1 N0V       0.049200
     73 H27          4.9790    -2.8610     1.8300 h1         1 N0V       0.062700
     74 H28          4.6060    -4.3240     0.9090 h1         1 N0V       0.062700
     75 H29          6.9330    -3.4500     0.5050 hc         1 N0V       0.062200
     76 H30          5.9820    -3.5940    -0.9740 hc         1 N0V       0.062200
     77 H32          5.2610     0.2480    -0.8300 ha         1 N0V       0.183000
     78 H34          3.5450    -1.7150    -1.6590 h1         1 N0V       0.051700
     79 H35          3.0780    -0.6010    -0.3680 h1         1 N0V       0.051700
     80 H36          8.5760    -2.7170    -1.2550 ha         1 N0V       0.115000
     81 H37         10.8470    -1.8090    -1.2090 ha         1 N0V       0.135000
     82 H38          9.3400     1.7980     0.6920 ha         1 N0V       0.135000
     83 H39          7.0810     0.8600     0.6460 ha         1 N0V       0.115000
     84 H40         14.7540    -0.2170    -1.1230 h4         1 N0V       0.025100
     85 H41         15.2250     2.0830    -0.1550 ha         1 N0V       0.136000
     86 H42         13.2490     3.3870     0.7640 h4         1 N0V       0.025100
     87 H43         -5.1990    -5.5550    -1.3510 h1         1 N0V       0.035367
     88 H44         -4.0610    -6.5470    -0.4050 h1         1 N0V       0.035367
     89 H45         -5.6670    -6.1620     0.2520 h1         1 N0V       0.035367
     90 N19         -4.9600    -1.8730    -0.1060 ns         1 N0V      -0.146000
@<TRIPOS>BOND
     1     1     4 1   
     2     1     5 1   
     3     1    50 1   
     4     1    51 1   
     5     2     5 1   
     6     2     6 ar  
     7     2    20 ar  
     8     3     7 ar  
     9     3    20 ar  
    10     3    52 1   
    11     4     5 1   
    12     4    53 1   
    13     4    54 1   
    14     5    55 1   
    15     6     8 ar  
    16     6    56 1   
    17     7     8 ar  
    18     7    57 1   
    19     8    19 1   
    20     9    10 ar  
    21     9    12 ar  
    22     9    58 1   
    23    10    11 ar  
    24    10    59 1   
    25    11    15 ar  
    26    11    17 1   
    27    12    16 ar  
    28    12    90 1   
    29    13    14 1   
    30    13    21 2   
    31    13    90 1   
    32    14    22 1   
    33    14    25 1   
    34    14    26 1   
    35    15    16 ar  
    36    15    19 1   
    37    16    60 1   
    38    17    18 1   
    39    17    61 1   
    40    18    19 2   
    41    22    23 1   
    42    22    63 1   
    43    22    64 1   
    44    23    24 1   
    45    23    27 1   
    46    24    25 1   
    47    24    65 1   
    48    24    66 1   
    49    25    67 1   
    50    25    68 1   
    51    26    48 1   
    52    26    69 1   
    53    26    70 1   
    54    27    28 1   
    55    27    71 1   
    56    27    72 1   
    57    28    29 2   
    58    28    30 1   
    59    30    31 1   
    60    30    35 1   
    61    31    32 1   
    62    31    73 1   
    63    31    74 1   
    64    32    33 1   
    65    32    75 1   
    66    32    76 1   
    67    33    34 2   
    68    33    36 1   
    69    34    35 1   
    70    34    77 1   
    71    35    78 1   
    72    35    79 1   
    73    36    37 ar  
    74    36    41 ar  
    75    37    38 ar  
    76    37    80 1   
    77    38    39 ar  
    78    38    81 1   
    79    39    40 ar  
    80    39    42 1   
    81    40    41 ar  
    82    40    82 1   
    83    41    83 1   
    84    42    43 ar  
    85    42    47 ar  
    86    43    44 ar  
    87    44    45 ar  
    88    44    84 1   
    89    45    46 ar  
    90    45    85 1   
    91    46    47 ar  
    92    46    86 1   
    93    48    49 1   
    94    49    87 1   
    95    49    88 1   
    96    49    89 1   
    97    62    90 1   
@<TRIPOS>SUBSTRUCTURE
     1 N0V         1 TEMP              0 ****  ****    0 ROOT
