@<TRIPOS>MOLECULE
N0X
   40    43     1     0     0
SMALL
abcg2


@<TRIPOS>ATOM
      1 N1           7.2350    -0.4470    18.2760 nc         1 N0X      -0.335000
      2 N3           5.7590     0.5500    19.5650 na         1 N0X      -0.364000
      3 C4          10.9430     0.7590    23.6020 ca         1 N0X       0.151100
      4 C5          12.2870     1.0950    23.7860 ca         1 N0X      -0.141000
      5 C6          13.2740     0.4510    23.0590 ca         1 N0X      -0.070000
      6 C7          12.9270    -0.5320    22.1350 ca         1 N0X      -0.142000
      7 C8          11.5910    -0.8690    21.9690 ca         1 N0X      -0.059000
      8 C10          8.5890    -0.0730    21.2110 c          1 N0X       0.610100
      9 C13          5.0360     0.9630    20.7400 cx         1 N0X      -0.001700
     10 C15          5.6740     1.9510    21.6700 cx         1 N0X      -0.124400
     11 O1           9.0460     0.9410    20.7100 o          1 N0X      -0.549100
     12 C11          6.8780    -0.2360    19.5160 cd         1 N0X       0.495400
     13 C14          4.5160     2.3660    20.8030 cx         1 N0X      -0.124400
     14 C12          5.4570     0.7920    18.2620 cd         1 N0X       0.391400
     15 N2           6.3290     0.2150    17.4720 nc         1 N0X      -0.355000
     16 C1           9.1220    -0.6680    22.5280 c6         1 N0X      -0.058700
     17 C            8.9860    -2.2000    22.5790 c3         1 N0X      -0.086100
     18 C9          10.5760    -0.2460    22.7000 ca         1 N0X      -0.144300
     19 O           10.0480     1.4560    24.3600 os         1 N0X      -0.348100
     20 C3           8.6700     1.3650    23.9650 c6         1 N0X       0.158600
     21 C2           8.2830    -0.0670    23.6810 c6         1 N0X      -0.110400
     22 H2          14.3120     0.7230    23.2070 ha         1 N0X       0.116000
     23 H3          13.6890    -1.0340    21.5530 ha         1 N0X       0.118000
     24 H4          11.3260    -1.6360    21.2530 ha         1 N0X       0.113000
     25 H5           4.4340     0.1710    21.1660 h1         1 N0X       0.095700
     26 H6           6.6530     2.3180    21.3970 hc         1 N0X       0.088450
     27 H7           5.5120     1.8050    22.7280 hc         1 N0X       0.088450
     28 H9           4.7310     3.0160    19.9670 hc         1 N0X       0.088450
     29 H10          3.5460     2.5070    21.2580 hc         1 N0X       0.088450
     30 H11          4.6120     1.3850    17.9510 h5         1 N0X       0.065100
     31 H12          9.5100    -2.5720    23.4590 hc         1 N0X       0.046033
     32 H13          7.9410    -2.5010    22.6750 hc         1 N0X       0.046033
     33 H14          9.4050    -2.6830    21.6970 hc         1 N0X       0.046033
     34 H15          8.5180     2.0020    23.0900 h1         1 N0X       0.062700
     35 H16          8.1000     1.7720    24.7990 h1         1 N0X       0.062700
     36 H17          7.2190    -0.1270    23.4490 hc         1 N0X       0.058700
     37 H18          8.4570    -0.6680    24.5770 hc         1 N0X       0.058700
     38 N            7.5200    -0.7220    20.6530 ns         1 N0X      -0.500400
     39 H1          12.5310     1.8710    24.5000 ha         1 N0X       0.128000
     40 H8           7.1230    -1.5290    21.1100 hn         1 N0X       0.335500
@<TRIPOS>BOND
     1     1    12 2   
     2     1    15 1   
     3     2     9 1   
     4     2    12 1   
     5     2    14 1   
     6     3     4 ar  
     7     3    18 ar  
     8     3    19 1   
     9     4     5 ar  
    10     4    39 1   
    11     5     6 ar  
    12     5    22 1   
    13     6     7 ar  
    14     6    23 1   
    15     7    18 ar  
    16     7    24 1   
    17     8    11 2   
    18     8    16 1   
    19     8    38 1   
    20     9    10 1   
    21     9    13 1   
    22     9    25 1   
    23    10    13 1   
    24    10    26 1   
    25    10    27 1   
    26    12    38 1   
    27    13    28 1   
    28    13    29 1   
    29    14    15 2   
    30    14    30 1   
    31    16    17 1   
    32    16    18 1   
    33    16    21 1   
    34    17    31 1   
    35    17    32 1   
    36    17    33 1   
    37    19    20 1   
    38    20    21 1   
    39    20    34 1   
    40    20    35 1   
    41    21    36 1   
    42    21    37 1   
    43    38    40 1   
@<TRIPOS>SUBSTRUCTURE
     1 N0X         1 TEMP              0 ****  ****    0 ROOT
