@<TRIPOS>MOLECULE
N0X
   40    43     1     0     0
SMALL
No Charge or Current Charge


@<TRIPOS>ATOM
      1 N1           7.4770     0.2410    18.3820 nc         1 N0X      -0.335000
      2 N3           5.8030     0.9310    19.5870 na         1 N0X      -0.364000
      3 C4          10.8950     0.7850    23.4680 ca         1 N0X       0.151100
      4 C5          12.1800     1.3070    23.6890 ca         1 N0X      -0.141000
      5 C6          13.3030     0.7040    23.1050 ca         1 N0X      -0.070000
      6 C7          13.1400    -0.4320    22.2990 ca         1 N0X      -0.142000
      7 C8          11.8600    -0.9680    22.0820 ca         1 N0X      -0.059000
      8 C10          8.8550    -0.6680    20.9570 c          1 N0X       0.610100
      9 C13          4.8990     1.1200    20.7270 cx         1 N0X      -0.001700
     10 C15          5.1780     2.0140    21.9120 cx         1 N0X      -0.124400
     11 O1           9.5640    -0.9630    20.0050 o          1 N0X      -0.549100
     12 C11          7.0280     0.3370    19.6260 cd         1 N0X       0.495400
     13 C14          4.0510     2.3470    20.9660 cx         1 N0X      -0.124400
     14 C12          5.4780     1.1590    18.2790 cd         1 N0X       0.391400
     15 N2           6.5020     0.7580    17.5320 nc         1 N0X      -0.355000
     16 C1           9.2990    -0.9770    22.4360 c6         1 N0X      -0.058700
     17 C            9.3140    -2.5350    22.5830 c3         1 N0X      -0.086100
     18 C9          10.7150    -0.3760    22.6680 ca         1 N0X      -0.144300
     19 O            9.8370     1.4220    24.0830 os         1 N0X      -0.348100
     20 C3           8.4920     1.1070    23.6850 c6         1 N0X       0.158600
     21 C2           8.3310    -0.4180    23.5330 c6         1 N0X      -0.110400
     22 H2          14.2960     1.1160    23.2760 ha         1 N0X       0.116000
     23 H3          14.0080    -0.9000    21.8400 ha         1 N0X       0.118000
     24 H4          11.7680    -1.8440    21.4460 ha         1 N0X       0.113000
     25 H5           4.4360     0.1520    20.9280 h1         1 N0X       0.095700
     26 H6           6.0610     2.6480    21.8800 hc         1 N0X       0.088450
     27 H7           4.9180     1.6430    22.9010 hc         1 N0X       0.088450
     28 H9           4.1850     3.1980    20.3020 hc         1 N0X       0.088450
     29 H10          3.0320     2.1960    21.3140 hc         1 N0X       0.088450
     30 H11          4.5400     1.5920    17.9540 h5         1 N0X       0.065100
     31 H12          9.7350    -2.8390    23.5500 hc         1 N0X       0.046033
     32 H13          8.2990    -2.9470    22.5220 hc         1 N0X       0.046033
     33 H14          9.9010    -3.0270    21.8000 hc         1 N0X       0.046033
     34 H15          8.2790     1.6220    22.7380 h1         1 N0X       0.062700
     35 H16          7.7980     1.4940    24.4440 h1         1 N0X       0.062700
     36 H17          7.2850    -0.6860    23.3330 hc         1 N0X       0.058700
     37 H18          8.5680    -0.8780    24.5030 hc         1 N0X       0.058700
     38 N            7.6320    -0.0600    20.7880 ns         1 N0X      -0.500400
     39 H1          12.3020     2.1880    24.3140 ha         1 N0X       0.128000
     40 H8           7.1190     0.1010    21.6390 hn         1 N0X       0.335500
@<TRIPOS>BOND
     1     1    12 2   
     2     1    15 1   
     3     2     9 1   
     4     2    12 1   
     5     2    14 1   
     6     3     4 ar  
     7     3    18 ar  
     8     3    19 1   
     9     4     5 ar  
    10     4    39 1   
    11     5     6 ar  
    12     5    22 1   
    13     6     7 ar  
    14     6    23 1   
    15     7    18 ar  
    16     7    24 1   
    17     8    11 2   
    18     8    16 1   
    19     8    38 1   
    20     9    10 1   
    21     9    13 1   
    22     9    25 1   
    23    10    13 1   
    24    10    26 1   
    25    10    27 1   
    26    12    38 1   
    27    13    28 1   
    28    13    29 1   
    29    14    15 2   
    30    14    30 1   
    31    16    17 1   
    32    16    18 1   
    33    16    21 1   
    34    17    31 1   
    35    17    32 1   
    36    17    33 1   
    37    19    20 1   
    38    20    21 1   
    39    20    34 1   
    40    20    35 1   
    41    21    36 1   
    42    21    37 1   
    43    38    40 1   
@<TRIPOS>SUBSTRUCTURE
     1 N0X         1 TEMP              0 ****  ****    0 ROOT
