@<TRIPOS>MOLECULE
N0Y
   29    30     1     0     0
SMALL
No Charge or Current Charge


@<TRIPOS>ATOM
      1 C1          29.0840    11.5010     4.0100 ca         1 N0Y      -0.105000
      2 C10         28.4420     6.0760     4.3820 ca         1 N0Y      -0.170000
      3 C11         27.0800     6.1770     4.0230 ca         1 N0Y       0.139100
      4 C12         26.6350     7.3030     3.3120 ca         1 N0Y      -0.170000
      5 C13         27.5340     8.3240     2.9570 ca         1 N0Y      -0.068000
      6 C15         26.5050     4.0170     5.0700 c3         1 N0Y       0.148900
      7 C2          29.9550    10.3940     4.0240 ca         1 N0Y      -0.077300
      8 C3          30.9020    10.2730     5.0600 ca         1 N0Y      -0.105000
      9 C4          30.9790    11.2500     6.0680 ca         1 N0Y      -0.109000
     10 C5          30.1090    12.3530     6.0480 ca         1 N0Y      -0.111000
     11 C6          29.1610    12.4770     5.0180 ca         1 N0Y      -0.109000
     12 C7          29.8680     9.3330     2.9350 c3         1 N0Y       0.021200
     13 C8          28.8930     8.2250     3.3120 ca         1 N0Y      -0.115300
     14 C9          29.3410     7.0980     4.0270 ca         1 N0Y      -0.068000
     15 H1          28.3450    11.6040     3.2190 ha         1 N0Y       0.110500
     16 H2          28.8190     5.2200     4.9330 ha         1 N0Y       0.120500
     17 H3          25.5870     7.3850     3.0350 ha         1 N0Y       0.120500
     18 H4          27.1730     9.1910     2.4090 ha         1 N0Y       0.111500
     19 H5          25.6210     3.3850     5.2160 h1         1 N0Y       0.039700
     20 H6          27.2540     3.4320     4.5200 h1         1 N0Y       0.039700
     21 H7          26.9100     4.2690     6.0580 h1         1 N0Y       0.039700
     22 H8          31.5780     9.4210     5.0850 ha         1 N0Y       0.110500
     23 H9          31.7130    11.1510     6.8660 ha         1 N0Y       0.111000
     24 H10         30.1680    13.1080     6.8280 ha         1 N0Y       0.111000
     25 H11         28.4850    13.3300     5.0020 ha         1 N0Y       0.111000
     26 H12         30.8620     8.9090     2.7430 hc         1 N0Y       0.052200
     27 H13         29.5640     9.7940     1.9860 hc         1 N0Y       0.052200
     28 H14         30.3880     7.0130     4.3100 ha         1 N0Y       0.111500
     29 O14         26.1510     5.2080     4.3430 os         1 N0Y      -0.342100
@<TRIPOS>BOND
     1     1     7 ar  
     2     1    11 ar  
     3     1    15 1   
     4     2     3 ar  
     5     2    14 ar  
     6     2    16 1   
     7     3     4 ar  
     8     3    29 1   
     9     4     5 ar  
    10     4    17 1   
    11     5    13 ar  
    12     5    18 1   
    13     6    19 1   
    14     6    20 1   
    15     6    21 1   
    16     6    29 1   
    17     7     8 ar  
    18     7    12 1   
    19     8     9 ar  
    20     8    22 1   
    21     9    10 ar  
    22     9    23 1   
    23    10    11 ar  
    24    10    24 1   
    25    11    25 1   
    26    12    13 1   
    27    12    26 1   
    28    12    27 1   
    29    13    14 ar  
    30    14    28 1   
@<TRIPOS>SUBSTRUCTURE
     1 N0Y         1 TEMP              0 ****  ****    0 ROOT
