@<TRIPOS>MOLECULE
N0Y
   29    30     1     0     0
SMALL
bcc


@<TRIPOS>ATOM
      1 C1          29.3950    11.6760     3.7230 ca         1 N0Y      -0.123000
      2 C10         28.5090     5.9320     4.1810 ca         1 N0Y      -0.188000
      3 C11         27.1360     6.1550     4.1970 ca         1 N0Y       0.139100
      4 C12         26.6450     7.4040     3.8050 ca         1 N0Y      -0.188000
      5 C13         27.5160     8.4010     3.4100 ca         1 N0Y      -0.086000
      6 C15         26.6620     3.9640     4.9710 c3         1 N0Y       0.125700
      7 C2          29.9000    10.4090     3.9990 ca         1 N0Y      -0.077300
      8 C3          30.4630    10.1760     5.2530 ca         1 N0Y      -0.123000
      9 C4          30.5230    11.1830     6.2040 ca         1 N0Y      -0.127000
     10 C5          30.0160    12.4460     5.9170 ca         1 N0Y      -0.129000
     11 C6          29.4510    12.6890     4.6740 ca         1 N0Y      -0.127000
     12 C7          29.8320     9.3030     2.9750 c3         1 N0Y       0.021200
     13 C8          28.8960     8.1950     3.3870 ca         1 N0Y      -0.115300
     14 C9          29.3680     6.9510     3.7770 ca         1 N0Y      -0.086000
     15 H1          28.9550    11.8750     2.7530 ha         1 N0Y       0.128500
     16 H2          28.9310     4.9810     4.4750 ha         1 N0Y       0.138500
     17 H3          25.5770     7.5810     3.8120 ha         1 N0Y       0.138500
     18 H4          27.1120     9.3620     3.1120 ha         1 N0Y       0.129500
     19 H5          25.7720     3.3900     5.2200 h1         1 N0Y       0.039700
     20 H6          27.2000     3.4460     4.1720 h1         1 N0Y       0.039700
     21 H7          27.3060     4.0120     5.8530 h1         1 N0Y       0.039700
     22 H8          30.8590     9.1940     5.4870 ha         1 N0Y       0.128500
     23 H9          30.9680    10.9850     7.1710 ha         1 N0Y       0.129000
     24 H10         30.0620    13.2330     6.6590 ha         1 N0Y       0.129000
     25 H11         29.0530    13.6680     4.4400 ha         1 N0Y       0.129000
     26 H12         30.8320     8.8900     2.8180 hc         1 N0Y       0.052200
     27 H13         29.5150     9.7200     2.0160 hc         1 N0Y       0.052200
     28 H14         30.4350     6.7580     3.7690 ha         1 N0Y       0.129500
     29 O14         26.2170     5.2420     4.5690 os         1 N0Y      -0.318900
@<TRIPOS>BOND
     1     1     7 ar  
     2     1    11 ar  
     3     1    15 1   
     4     2     3 ar  
     5     2    14 ar  
     6     2    16 1   
     7     3     4 ar  
     8     3    29 1   
     9     4     5 ar  
    10     4    17 1   
    11     5    13 ar  
    12     5    18 1   
    13     6    19 1   
    14     6    20 1   
    15     6    21 1   
    16     6    29 1   
    17     7     8 ar  
    18     7    12 1   
    19     8     9 ar  
    20     8    22 1   
    21     9    10 ar  
    22     9    23 1   
    23    10    11 ar  
    24    10    24 1   
    25    11    25 1   
    26    12    13 1   
    27    12    26 1   
    28    12    27 1   
    29    13    14 ar  
    30    14    28 1   
@<TRIPOS>SUBSTRUCTURE
     1 N0Y         1 TEMP              0 ****  ****    0 ROOT
