@<TRIPOS>MOLECULE
N0Z
   25    27     1     0     0
SMALL
No Charge or Current Charge


@<TRIPOS>ATOM
      1 CAM        -60.6060   -14.6240    24.2040 ca         1 N0Z      -0.184000
      2 CAI        -61.0580   -13.3800    23.7160 cp         1 N0Z       0.016000
      3 C5         -62.3640   -12.7230    23.7210 cp         1 N0Z      -0.314000
      4 C4         -63.6340   -13.0910    24.1900 ca         1 N0Z       0.465900
      5 NAO        -63.8950   -14.2800    24.7770 nv         1 N0Z      -1.057900
      6 N3         -64.6870   -12.2750    24.0640 nb         1 N0Z      -0.356000
      7 C2         -64.4460   -11.0960    23.4680 ca         1 N0Z       0.437900
      8 NAN        -65.5110   -10.2770    23.3410 nv         1 N0Z      -1.052900
      9 N1         -63.2860   -10.6330    22.9750 nb         1 N0Z      -0.313000
     10 C6         -62.2490   -11.4700    23.1140 ca         1 N0Z       0.248500
     11 NAG        -60.9020   -11.3790    22.7440 na         1 N0Z      -0.330300
     12 CAH        -60.1620   -12.5170    23.0960 ca         1 N0Z      -0.060200
     13 CAJ        -58.8080   -12.8130    22.9150 ca         1 N0Z      -0.086000
     14 CAK        -58.3530   -14.0600    23.3960 ca         1 N0Z      -0.131000
     15 CAL        -59.2440   -14.9550    24.0360 ca         1 N0Z       0.124100
     16 OAP        -58.7750   -16.1490    24.4960 oh         1 N0Z      -0.536100
     17 H1         -61.2850   -15.3090    24.7010 ha         1 N0Z       0.106000
     18 H2         -64.8700   -14.5470    24.8740 hn         1 N0Z       0.486000
     19 H3         -63.2320   -15.0340    24.6320 hn         1 N0Z       0.486000
     20 H4         -65.4360    -9.4950    22.6960 hn         1 N0Z       0.490000
     21 H5         -66.4380   -10.6700    23.4790 hn         1 N0Z       0.490000
     22 H6         -60.5140   -10.5700    22.2740 hn         1 N0Z       0.363000
     23 H7         -58.1340   -12.1140    22.4250 ha         1 N0Z       0.119000
     24 H8         -57.3080   -14.3330    23.2770 ha         1 N0Z       0.129000
     25 H9         -59.5190   -16.6360    24.9100 ho         1 N0Z       0.460000
@<TRIPOS>BOND
     1     1     2 ar  
     2     1    15 ar  
     3     1    17 1   
     4     2     3 1   
     5     2    12 ar  
     6     3     4 ar  
     7     3    10 ar  
     8     4     5 1   
     9     4     6 ar  
    10     5    18 1   
    11     5    19 1   
    12     6     7 ar  
    13     7     8 1   
    14     7     9 ar  
    15     8    20 1   
    16     8    21 1   
    17     9    10 ar  
    18    10    11 1   
    19    11    12 1   
    20    11    22 1   
    21    12    13 ar  
    22    13    14 ar  
    23    13    23 1   
    24    14    15 ar  
    25    14    24 1   
    26    15    16 1   
    27    16    25 1   
@<TRIPOS>SUBSTRUCTURE
     1 N0Z         1 TEMP              0 ****  ****    0 ROOT
