@<TRIPOS>MOLECULE
N0Z
   25    27     1     0     0
SMALL
abcg2


@<TRIPOS>ATOM
      1 CAM        -60.5770   -14.6560    24.2070 ca         1 N0Z      -0.184000
      2 CAI        -61.0890   -13.4430    23.7480 cp         1 N0Z       0.016000
      3 C5         -62.3840   -12.8220    23.7530 cp         1 N0Z      -0.314000
      4 C4         -63.6860   -13.1320    24.1810 ca         1 N0Z       0.465900
      5 NAO        -63.9880   -14.2890    24.7990 nv         1 N0Z      -1.057900
      6 N3         -64.6730   -12.2550    24.0080 nb         1 N0Z      -0.356000
      7 C2         -64.3960   -11.0860    23.4180 ca         1 N0Z       0.437900
      8 NAN        -65.4260   -10.2160    23.3070 nv         1 N0Z      -1.052900
      9 N1         -63.2130   -10.6790    22.9540 nb         1 N0Z      -0.313000
     10 C6         -62.2460   -11.5660    23.1410 ca         1 N0Z       0.248500
     11 NAG        -60.9560   -11.4000    22.7650 na         1 N0Z      -0.330300
     12 CAH        -60.2260   -12.5220    23.1180 ca         1 N0Z      -0.060200
     13 CAJ        -58.8820   -12.7940    22.9360 ca         1 N0Z      -0.086000
     14 CAK        -58.3870   -14.0070    23.3910 ca         1 N0Z      -0.131000
     15 CAL        -59.2270   -14.9310    24.0230 ca         1 N0Z       0.124100
     16 OAP        -58.6630   -16.0890    24.4410 oh         1 N0Z      -0.536100
     17 H1         -61.2060   -15.3830    24.7080 ha         1 N0Z       0.106000
     18 H2         -64.9610   -14.5150    24.9220 hn         1 N0Z       0.486000
     19 H3         -63.3650   -15.0740    24.7330 hn         1 N0Z       0.486000
     20 H4         -65.3190    -9.4350    22.6830 hn         1 N0Z       0.490000
     21 H5         -66.3590   -10.5690    23.4260 hn         1 N0Z       0.490000
     22 H6         -60.5920   -10.5860    22.2980 hn         1 N0Z       0.363000
     23 H7         -58.2250   -12.0840    22.4500 ha         1 N0Z       0.119000
     24 H8         -57.3390   -14.2460    23.2590 ha         1 N0Z       0.129000
     25 H9         -59.3270   -16.6540    24.8500 ho         1 N0Z       0.460000
@<TRIPOS>BOND
     1     1     2 ar  
     2     1    15 ar  
     3     1    17 1   
     4     2     3 1   
     5     2    12 ar  
     6     3     4 ar  
     7     3    10 ar  
     8     4     5 1   
     9     4     6 ar  
    10     5    18 1   
    11     5    19 1   
    12     6     7 ar  
    13     7     8 1   
    14     7     9 ar  
    15     8    20 1   
    16     8    21 1   
    17     9    10 ar  
    18    10    11 1   
    19    11    12 1   
    20    11    22 1   
    21    12    13 ar  
    22    13    14 ar  
    23    13    23 1   
    24    14    15 ar  
    25    14    24 1   
    26    15    16 1   
    27    16    25 1   
@<TRIPOS>SUBSTRUCTURE
     1 N0Z         1 TEMP              0 ****  ****    0 ROOT
