@<TRIPOS>MOLECULE
N10
   35    34     1     0     0
SMALL
abcg2


@<TRIPOS>ATOM
      1 C1          22.7220    57.8960    30.9380 c          1 N10       0.661100
      2 O2          23.3400    57.3870    31.8530 o          1 N10      -0.579000
      3 N           22.6420    60.6140    32.5860 n8         1 N10      -1.005200
      4 CA          23.5050    61.0290    31.4970 c3         1 N10      -0.009500
      5 CB          24.1270    59.8160    30.8260 c3         1 N10       0.209600
      6 OG          23.1090    58.9880    30.2690 os         1 N10      -0.434100
      7 N1          21.5670    57.4230    30.4320 ns         1 N10      -0.509900
      8 CA1         20.9560    56.1820    30.8520 c3         1 N10       0.121000
      9 CB2         21.1380    55.0370    29.8620 c3         1 N10      -0.097400
     10 CG3         22.5900    54.6460    29.6190 c3         1 N10      -0.076400
     11 CD4         22.7310    53.4250    28.7190 c3         1 N10      -0.074400
     12 CG5         24.1810    53.0500    28.4400 c3         1 N10      -0.077400
     13 CD6         24.3160    51.8060    27.5740 c3         1 N10      -0.087100
     14 C           22.7500    61.9210    30.4720 c          1 N10       0.727000
     15 O           23.3540    62.1510    29.4070 o          1 N10      -0.727500
     16 OXT         21.6360    62.3590    30.8160 o          1 N10      -0.727500
     17 HA          24.3580    61.6400    31.8410 h1         1 N10       0.006700
     18 HB1         24.7630    60.1300    30.0000 h1         1 N10       0.045200
     19 HB2         24.7400    59.2510    31.5300 h1         1 N10       0.045200
     20 HN1         21.1460    57.9180    29.6620 hn         1 N10       0.327500
     21 HA11        21.3740    55.9090    31.8200 h1         1 N10       0.050200
     22 HA12        19.8900    56.3600    31.0090 h1         1 N10       0.050200
     23 HB21        20.5860    54.1750    30.2510 hc         1 N10       0.030700
     24 HB22        20.6620    55.2970    28.9110 hc         1 N10       0.030700
     25 HG31        23.1280    55.4870    29.1700 hc         1 N10       0.052200
     26 HG32        23.0800    54.4470    30.5780 hc         1 N10       0.052200
     27 HD41        22.2200    52.5740    29.1810 hc         1 N10       0.029200
     28 HD42        22.2170    53.6080    27.7690 hc         1 N10       0.029200
     29 HG51        24.6850    53.8920    27.9540 hc         1 N10       0.040700
     30 HG52        24.7020    52.8940    29.3900 hc         1 N10       0.040700
     31 HD61        23.8270    51.9430    26.6070 hc         1 N10       0.025700
     32 HD62        25.3610    51.5600    27.3820 hc         1 N10       0.025700
     33 HD63        23.8560    50.9400    28.0540 hc         1 N10       0.025700
     34 HN1A        23.1750    60.4950    33.4370 hn         1 N10       0.389500
     35 HN2         21.9640    61.3470    32.7490 hn         1 N10       0.389500
@<TRIPOS>BOND
     1     1     2 2   
     2     1     6 1   
     3     1     7 1   
     4     3     4 1   
     5     3    34 1   
     6     3    35 1   
     7     4     5 1   
     8     4    14 1   
     9     4    17 1   
    10     5     6 1   
    11     5    18 1   
    12     5    19 1   
    13     7     8 1   
    14     7    20 1   
    15     8     9 1   
    16     8    21 1   
    17     8    22 1   
    18     9    10 1   
    19     9    23 1   
    20     9    24 1   
    21    10    11 1   
    22    10    25 1   
    23    10    26 1   
    24    11    12 1   
    25    11    27 1   
    26    11    28 1   
    27    12    13 1   
    28    12    29 1   
    29    12    30 1   
    30    13    31 1   
    31    13    32 1   
    32    13    33 1   
    33    14    15 1   
    34    14    16 1   
@<TRIPOS>SUBSTRUCTURE
     1 N10         1 TEMP              0 ****  ****    0 ROOT
