@<TRIPOS>MOLECULE
N10
   35    34     1     0     0
SMALL
No Charge or Current Charge


@<TRIPOS>ATOM
      1 C1          22.4910    57.9690    30.7600 c          1 N10       0.661100
      2 O2          23.2030    57.4340    31.5970 o          1 N10      -0.579000
      3 N           23.0150    60.4310    32.7590 n8         1 N10      -1.005200
      4 CA          23.5570    60.9690    31.4420 c3         1 N10      -0.009500
      5 CB          23.9490    59.8660    30.4080 c3         1 N10       0.209600
      6 OG          22.7920    59.0870    30.0380 os         1 N10      -0.434100
      7 N1          21.3180    57.4500    30.2850 ns         1 N10      -0.509900
      8 CA1         20.7120    56.1950    30.7310 c3         1 N10       0.121000
      9 CB2         21.0130    55.0140    29.7820 c3         1 N10      -0.097400
     10 CG3         22.5110    54.6430    29.6770 c3         1 N10      -0.076400
     11 CD4         22.7680    53.4170    28.7750 c3         1 N10      -0.074400
     12 CG5         24.2630    53.0480    28.6670 c3         1 N10      -0.077400
     13 CD6         24.5200    51.8240    27.7670 c3         1 N10      -0.087100
     14 C           22.7230    62.0910    30.6970 c          1 N10       0.727000
     15 O           23.3450    62.9410    30.0740 o          1 N10      -0.727500
     16 OXT         21.5100    62.1500    30.8660 o          1 N10      -0.727500
     17 HA          24.5030    61.4550    31.7180 h1         1 N10       0.006700
     18 HB1         24.3560    60.3620    29.5180 h1         1 N10       0.045200
     19 HB2         24.7520    59.2340    30.8110 h1         1 N10       0.045200
     20 HN1         20.8610    57.9870    29.5600 hn         1 N10       0.327500
     21 HA11        21.0650    55.9540    31.7430 h1         1 N10       0.050200
     22 HA12        19.6250    56.3410    30.7860 h1         1 N10       0.050200
     23 HB21        20.4550    54.1380    30.1360 hc         1 N10       0.030700
     24 HB22        20.6260    55.2500    28.7830 hc         1 N10       0.030700
     25 HG31        23.0720    55.4990    29.2810 hc         1 N10       0.052200
     26 HG32        22.9030    54.4410    30.6820 hc         1 N10       0.052200
     27 HD41        22.2130    52.5560    29.1700 hc         1 N10       0.029200
     28 HD42        22.3730    53.6190    27.7710 hc         1 N10       0.029200
     29 HG51        24.8220    53.9050    28.2710 hc         1 N10       0.040700
     30 HG52        24.6610    52.8430    29.6690 hc         1 N10       0.040700
     31 HD61        24.1650    52.0110    26.7470 hc         1 N10       0.025700
     32 HD62        25.5930    51.6010    27.7220 hc         1 N10       0.025700
     33 HD63        24.0020    50.9400    28.1580 hc         1 N10       0.025700
     34 HN1A        23.6730    59.7460    33.1510 hn         1 N10       0.389500
     35 HN2         22.9890    61.1860    33.4550 hn         1 N10       0.389500
@<TRIPOS>BOND
     1     1     2 2   
     2     1     6 1   
     3     1     7 1   
     4     3     4 1   
     5     3    34 1   
     6     3    35 1   
     7     4     5 1   
     8     4    14 1   
     9     4    17 1   
    10     5     6 1   
    11     5    18 1   
    12     5    19 1   
    13     7     8 1   
    14     7    20 1   
    15     8     9 1   
    16     8    21 1   
    17     8    22 1   
    18     9    10 1   
    19     9    23 1   
    20     9    24 1   
    21    10    11 1   
    22    10    25 1   
    23    10    26 1   
    24    11    12 1   
    25    11    27 1   
    26    11    28 1   
    27    12    13 1   
    28    12    29 1   
    29    12    30 1   
    30    13    31 1   
    31    13    32 1   
    32    13    33 1   
    33    14    15 1   
    34    14    16 1   
@<TRIPOS>SUBSTRUCTURE
     1 N10         1 TEMP              0 ****  ****    0 ROOT
