@<TRIPOS>MOLECULE
N12
   69    71     1     0     0
SMALL
No Charge or Current Charge


@<TRIPOS>ATOM
      1 C1           0.3910    -7.1060    -0.0300 c          1 N12       0.723000
      2 C2           1.5370    -6.4950    -0.9220 c3         1 N12       0.012800
      3 N3           1.1700    -6.2340    -2.3530 n7         1 N12      -0.841400
      4 C4           2.2800    -5.7360    -3.2260 c3         1 N12       0.120500
      5 C5           3.4220    -6.7890    -3.4360 c          1 N12       0.550100
      6 C6           1.7210    -5.2830    -4.6020 c3         1 N12      -0.061400
      7 C7           0.7080    -4.0940    -4.5970 c6         1 N12      -0.056700
      8 C8           1.3230    -2.7830    -4.0220 c6         1 N12      -0.068900
      9 C9           0.3100    -1.6120    -4.0590 c6         1 N12      -0.072900
     10 C10         -0.2340    -1.3800    -5.4890 c6         1 N12      -0.072400
     11 C11         -0.8550    -2.6750    -6.0630 c6         1 N12      -0.072900
     12 C12          0.1610    -3.8420    -6.0310 c6         1 N12      -0.068900
     13 O13          3.2090    -7.9060    -3.8940 o          1 N12      -0.599100
     14 N14          4.6930    -6.3440    -3.0780 ns         1 N12      -0.523900
     15 C15          5.8690    -7.2660    -3.1660 c5         1 N12       0.048400
     16 C16          6.2510    -7.6790    -4.6510 c          1 N12       0.614100
     17 O17          6.9610    -8.6170    -4.9920 o          1 N12      -0.603100
     18 N18          5.6180    -6.8670    -5.5680 ns         1 N12      -0.505900
     19 C19          5.6690    -7.0370    -7.0150 c3         1 N12       0.152300
     20 C20          4.4550    -6.4040    -7.6720 ca         1 N12      -0.159300
     21 C21          3.1690    -6.9340    -7.4670 ca         1 N12      -0.047000
     22 C22          2.0790    -6.3130    -8.0990 ca         1 N12      -0.132000
     23 C23          2.2950    -5.1890    -8.9290 ca         1 N12       0.250700
     24 N24          3.5470    -4.6730    -9.1100 nb         1 N12      -0.679000
     25 C25          4.5930    -5.2740    -8.4970 ca         1 N12       0.342900
     26 O26         -0.0930    -8.1810    -0.3660 o          1 N12      -0.729500
     27 O27          0.0130    -6.4770     0.9500 o          1 N12      -0.729500
     28 C28          1.1220    -4.4840    -9.6220 ce         1 N12       0.545200
     29 N29          1.1970    -3.2830   -10.0450 n2         1 N12      -0.827100
     30 N30         -0.0570    -5.1370    -9.8280 nv         1 N12      -1.028200
     31 C31          5.5970    -8.4920    -2.2170 c5         1 N12      -0.079400
     32 C32          7.0570    -6.4820    -2.4990 c5         1 N12      -0.079400
     33 C33          6.9320    -8.6260    -1.4440 c5         1 N12      -0.081400
     34 C34          7.1990    -7.1420    -1.1000 c5         1 N12      -0.081400
     35 H21A         1.8730    -5.5600    -0.4530 h1         1 N12       0.010700
     36 H22A         2.3820    -7.1960    -0.8780 h1         1 N12       0.010700
     37 HN3          0.8230    -7.1170    -2.7560 hn         1 N12       0.453000
     38 H4           2.7450    -4.8630    -2.7510 h1         1 N12       0.046700
     39 H61          2.5740    -5.0140    -5.2380 hc         1 N12       0.032700
     40 H62          1.2560    -6.1530    -5.0840 hc         1 N12       0.032700
     41 H7          -0.1330    -4.3970    -3.9560 hc         1 N12       0.087700
     42 H81          2.2210    -2.5100    -4.5940 hc         1 N12       0.033200
     43 H82          1.6470    -2.9340    -2.9840 hc         1 N12       0.033200
     44 H91          0.7880    -0.6940    -3.6900 hc         1 N12       0.038200
     45 H92         -0.5250    -1.8240    -3.3770 hc         1 N12       0.038200
     46 H101        -0.9850    -0.5790    -5.4780 hc         1 N12       0.027700
     47 H102         0.5800    -1.0380    -6.1440 hc         1 N12       0.027700
     48 H111        -1.7500    -2.9460    -5.4850 hc         1 N12       0.038200
     49 H112        -1.1900    -2.5020    -7.0940 hc         1 N12       0.038200
     50 H121        -0.3180    -4.7530    -6.4170 hc         1 N12       0.033200
     51 H122         0.9940    -3.6170    -6.7100 hc         1 N12       0.033200
     52 HN14         4.7530    -5.4110    -2.6850 hn         1 N12       0.316500
     53 HN18         5.0410    -6.1290    -5.1860 hn         1 N12       0.319500
     54 H191         5.6950    -8.1080    -7.2570 h1         1 N12       0.060200
     55 H192         6.5930    -6.5790    -7.3940 h1         1 N12       0.060200
     56 H21          3.0180    -7.8020    -6.8270 ha         1 N12       0.153000
     57 H22          1.0760    -6.6990    -7.9390 ha         1 N12       0.141000
     58 H25          5.5720    -4.8310    -8.6760 h4         1 N12       0.014100
     59 HN29         2.1720    -2.9810    -9.8850 hn         1 N12       0.409400
     60 H301        -0.6860    -4.6740   -10.4740 hn         1 N12       0.464000
     61 H302        -0.0230    -6.1490    -9.8890 hn         1 N12       0.464000
     62 H311         5.3400    -9.4040    -2.7670 hc         1 N12       0.061200
     63 H312         4.7750    -8.3030    -1.5150 hc         1 N12       0.061200
     64 H321         6.8960    -5.3990    -2.4350 hc         1 N12       0.061200
     65 H322         7.9840    -6.6180    -3.0700 hc         1 N12       0.061200
     66 H331         7.7270    -9.0550    -2.0670 hc         1 N12       0.045450
     67 H332         6.8360    -9.2530    -0.5510 hc         1 N12       0.045450
     68 H341         6.4620    -6.7490    -0.3890 hc         1 N12       0.045450
     69 H342         8.1920    -6.9840    -0.6640 hc         1 N12       0.045450
@<TRIPOS>BOND
     1     1     2 1   
     2     1    26 1   
     3     1    27 1   
     4     2     3 1   
     5     2    35 1   
     6     2    36 1   
     7     3     4 1   
     8     3    37 1   
     9     4     5 1   
    10     4     6 1   
    11     4    38 1   
    12     5    13 2   
    13     5    14 1   
    14     6     7 1   
    15     6    39 1   
    16     6    40 1   
    17     7     8 1   
    18     7    12 1   
    19     7    41 1   
    20     8     9 1   
    21     8    42 1   
    22     8    43 1   
    23     9    10 1   
    24     9    44 1   
    25     9    45 1   
    26    10    11 1   
    27    10    46 1   
    28    10    47 1   
    29    11    12 1   
    30    11    48 1   
    31    11    49 1   
    32    12    50 1   
    33    12    51 1   
    34    14    15 1   
    35    14    52 1   
    36    15    16 1   
    37    15    31 1   
    38    15    32 1   
    39    16    17 2   
    40    16    18 1   
    41    18    19 1   
    42    18    53 1   
    43    19    20 1   
    44    19    54 1   
    45    19    55 1   
    46    20    21 ar  
    47    20    25 ar  
    48    21    22 ar  
    49    21    56 1   
    50    22    23 ar  
    51    22    57 1   
    52    23    24 ar  
    53    23    28 1   
    54    24    25 ar  
    55    25    58 1   
    56    28    29 2   
    57    28    30 1   
    58    29    59 1   
    59    30    60 1   
    60    30    61 1   
    61    31    33 1   
    62    31    62 1   
    63    31    63 1   
    64    32    34 1   
    65    32    64 1   
    66    32    65 1   
    67    33    34 1   
    68    33    66 1   
    69    33    67 1   
    70    34    68 1   
    71    34    69 1   
@<TRIPOS>SUBSTRUCTURE
     1 N12         1 TEMP              0 ****  ****    0 ROOT
