@<TRIPOS>MOLECULE
N12
   69    71     1     0     0
SMALL
abcg2


@<TRIPOS>ATOM
      1 C1           0.1100    -7.2390    -0.5250 c          1 N12       0.723000
      2 C2           1.3300    -6.5240    -1.1330 c3         1 N12       0.012800
      3 N3           1.0950    -6.0700    -2.4860 n7         1 N12      -0.841400
      4 C4           2.2660    -5.5890    -3.1720 c3         1 N12       0.120500
      5 C5           3.3320    -6.6730    -3.3430 c          1 N12       0.550100
      6 C6           1.9070    -5.0820    -4.5720 c3         1 N12      -0.061400
      7 C7           0.8760    -3.9580    -4.6120 c6         1 N12      -0.056700
      8 C8           1.3830    -2.6780    -3.9490 c6         1 N12      -0.068900
      9 C9           0.3600    -1.5480    -4.0370 c6         1 N12      -0.072900
     10 C10         -0.0470    -1.2730    -5.4810 c6         1 N12      -0.072400
     11 C11         -0.5520    -2.5440    -6.1570 c6         1 N12      -0.072900
     12 C12          0.4760    -3.6660    -6.0580 c6         1 N12      -0.068900
     13 O13          3.0650    -7.7630    -3.8280 o          1 N12      -0.599100
     14 N14          4.5830    -6.3430    -2.9720 ns         1 N12      -0.523900
     15 C15          5.7020    -7.2520    -3.1380 c5         1 N12       0.048400
     16 C16          5.8840    -7.5980    -4.6240 c          1 N12       0.614100
     17 O17          6.2780    -8.6940    -4.9870 o          1 N12      -0.603100
     18 N18          5.6760    -6.5670    -5.4610 ns         1 N12      -0.505900
     19 C19          5.7870    -6.6390    -6.8990 c3         1 N12       0.152300
     20 C20          4.4820    -6.2790    -7.5560 ca         1 N12      -0.159300
     21 C21          3.3370    -7.0450    -7.3770 ca         1 N12      -0.047000
     22 C22          2.1560    -6.6540    -7.9830 ca         1 N12      -0.132000
     23 C23          2.1470    -5.4880    -8.7420 ca         1 N12       0.250700
     24 N24          3.2350    -4.7440    -8.9030 nb         1 N12      -0.679000
     25 C25          4.3630    -5.1330    -8.3320 ca         1 N12       0.342900
     26 O26         -0.7490    -7.6710    -1.3180 o          1 N12      -0.729500
     27 O27          0.1120    -7.3570     0.7160 o          1 N12      -0.729500
     28 C28          0.9030    -4.9620    -9.3890 ce         1 N12       0.545200
     29 N29          0.7480    -3.7390    -9.7090 n2         1 N12      -0.827100
     30 N30         -0.0960    -5.8750    -9.5650 nv         1 N12      -1.028200
     31 C31          5.5740    -8.5210    -2.2580 c5         1 N12      -0.079400
     32 C32          7.0090    -6.5620    -2.6500 c5         1 N12      -0.079400
     33 C33          6.9200    -8.6710    -1.5540 c5         1 N12      -0.081400
     34 C34          7.3470    -7.2270    -1.3190 c5         1 N12      -0.081400
     35 H21A         1.6010    -5.6680    -0.5080 h1         1 N12       0.010700
     36 H22A         2.1770    -7.2310    -1.0470 h1         1 N12       0.010700
     37 HN3          0.6500    -6.8100    -3.0150 hn         1 N12       0.453000
     38 H4           2.6880    -4.7630    -2.5870 h1         1 N12       0.046700
     39 H61          2.8210    -4.7450    -5.0750 hc         1 N12       0.032700
     40 H62          1.5390    -5.9300    -5.1580 hc         1 N12       0.032700
     41 H7          -0.0160    -4.2950    -4.0710 hc         1 N12       0.087700
     42 H81          2.3130    -2.3720    -4.4440 hc         1 N12       0.033200
     43 H82          1.6360    -2.8610    -2.9010 hc         1 N12       0.033200
     44 H91          0.7590    -0.6420    -3.5740 hc         1 N12       0.038200
     45 H92         -0.5290    -1.8260    -3.4590 hc         1 N12       0.038200
     46 H101        -0.8120    -0.4930    -5.5180 hc         1 N12       0.027700
     47 H102         0.8160    -0.8880    -6.0350 hc         1 N12       0.027700
     48 H111        -1.4850    -2.8610    -5.6780 hc         1 N12       0.038200
     49 H112        -0.7880    -2.3530    -7.2070 hc         1 N12       0.038200
     50 H121         0.0890    -4.5730    -6.5300 hc         1 N12       0.033200
     51 H122         1.3690    -3.3830    -6.6280 hc         1 N12       0.033200
     52 HN14         4.7410    -5.4560    -2.5200 hn         1 N12       0.316500
     53 HN18         5.3490    -5.6960    -5.0740 hn         1 N12       0.319500
     54 H191         6.0860    -7.6510    -7.1690 h1         1 N12       0.060200
     55 H192         6.5740    -5.9670    -7.2480 h1         1 N12       0.060200
     56 H21          3.3590    -7.9290    -6.7530 ha         1 N12       0.153000
     57 H22          1.2560    -7.2330    -7.8340 ha         1 N12       0.141000
     58 H25          5.2290    -4.4960    -8.4920 h4         1 N12       0.014100
     59 HN29         1.5700    -3.2120    -9.4330 hn         1 N12       0.409400
     60 H301        -0.8810    -5.5590   -10.1130 hn         1 N12       0.464000
     61 H302         0.1610    -6.8310    -9.7470 hn         1 N12       0.464000
     62 H311         5.2840    -9.4010    -2.8260 hc         1 N12       0.061200
     63 H312         4.7960    -8.3430    -1.5130 hc         1 N12       0.061200
     64 H321         6.9020    -5.4780    -2.5910 hc         1 N12       0.061200
     65 H322         7.8180    -6.7520    -3.3590 hc         1 N12       0.061200
     66 H331         7.6390    -9.1700    -2.2100 hc         1 N12       0.045450
     67 H332         6.8470    -9.2590    -0.6380 hc         1 N12       0.045450
     68 H341         6.7580    -6.7890    -0.5080 hc         1 N12       0.045450
     69 H342         8.4000    -7.1170    -1.0570 hc         1 N12       0.045450
@<TRIPOS>BOND
     1     1     2 1   
     2     1    26 1   
     3     1    27 1   
     4     2     3 1   
     5     2    35 1   
     6     2    36 1   
     7     3     4 1   
     8     3    37 1   
     9     4     5 1   
    10     4     6 1   
    11     4    38 1   
    12     5    13 2   
    13     5    14 1   
    14     6     7 1   
    15     6    39 1   
    16     6    40 1   
    17     7     8 1   
    18     7    12 1   
    19     7    41 1   
    20     8     9 1   
    21     8    42 1   
    22     8    43 1   
    23     9    10 1   
    24     9    44 1   
    25     9    45 1   
    26    10    11 1   
    27    10    46 1   
    28    10    47 1   
    29    11    12 1   
    30    11    48 1   
    31    11    49 1   
    32    12    50 1   
    33    12    51 1   
    34    14    15 1   
    35    14    52 1   
    36    15    16 1   
    37    15    31 1   
    38    15    32 1   
    39    16    17 2   
    40    16    18 1   
    41    18    19 1   
    42    18    53 1   
    43    19    20 1   
    44    19    54 1   
    45    19    55 1   
    46    20    21 ar  
    47    20    25 ar  
    48    21    22 ar  
    49    21    56 1   
    50    22    23 ar  
    51    22    57 1   
    52    23    24 ar  
    53    23    28 1   
    54    24    25 ar  
    55    25    58 1   
    56    28    29 2   
    57    28    30 1   
    58    29    59 1   
    59    30    60 1   
    60    30    61 1   
    61    31    33 1   
    62    31    62 1   
    63    31    63 1   
    64    32    34 1   
    65    32    64 1   
    66    32    65 1   
    67    33    34 1   
    68    33    66 1   
    69    33    67 1   
    70    34    68 1   
    71    34    69 1   
@<TRIPOS>SUBSTRUCTURE
     1 N12         1 TEMP              0 ****  ****    0 ROOT
