@<TRIPOS>MOLECULE
N13
   52    57     1     0     0
SMALL
No Charge or Current Charge


@<TRIPOS>ATOM
      1 CA           5.0670    -0.1800     1.6440 c          1 N13       0.603100
      2 C29          6.7870    -2.1380    -0.1180 ca         1 N13      -0.179000
      3 C30          7.6120    -2.8840    -0.9740 ca         1 N13       0.200000
      4 FA           7.4970    -4.2300    -1.0080 f          1 N13      -0.175000
      5 C31          8.5550    -2.2470    -1.7920 ca         1 N13      -0.178000
      6 C32          8.6770    -0.8490    -1.7540 ca         1 N13      -0.055000
      7 C33          7.8510    -0.0990    -0.8980 ca         1 N13      -0.188000
      8 C28          6.8990    -0.7300    -0.0740 ca         1 N13       0.006000
      9 NB           6.1050     0.0990     0.7640 ns         1 N13      -0.150000
     10 OB           4.6150    -1.3020     1.8460 o          1 N13      -0.549100
     11 C26          4.4920     1.0550     2.3560 c3         1 N13      -0.099100
     12 C21          3.1900     1.5410     1.7660 cc         1 N13      -0.143300
     13 C25          1.9840     0.9140     1.6480 cd         1 N13      -0.186000
     14 N22          2.9580     2.7940     1.2010 na         1 N13       0.016800
     15 N23          1.6620     2.9610     0.7380 nc         1 N13      -0.509800
     16 C24          1.0820     1.8040     1.0200 cd         1 N13       0.302500
     17 C16         -0.3410     1.5410     0.6890 ca         1 N13      -0.072500
     18 C17         -1.1210     2.5220     0.0210 ca         1 N13      -0.109000
     19 C15         -0.9540     0.3040     1.0400 ca         1 N13      -0.136000
     20 C14         -2.3080     0.0450     0.7340 ca         1 N13      -0.024000
     21 C18         -3.0320     1.0470     0.0720 ca         1 N13      -0.187900
     22 C19         -2.4610     2.2310    -0.2670 ca         1 N13      -0.049200
     23 N11         -3.4090     3.0110    -0.8990 na         1 N13      -0.045400
     24 N12         -4.6330     2.3250    -0.9780 nc         1 N13      -0.529100
     25 C13         -4.4100     1.1280    -0.3880 cd         1 N13       0.328600
     26 C02         -5.4540     0.1170    -0.2700 cd         1 N13       0.412500
     27 N03         -6.7450     0.3570    -0.7720 na         1 N13      -0.296600
     28 C08         -7.4230    -0.7920    -0.4800 ca         1 N13      -0.077200
     29 C04         -8.7590    -1.1140    -0.7500 ca         1 N13      -0.115000
     30 C05         -9.2260    -2.3810    -0.3420 ca         1 N13      -0.094000
     31 C06         -8.3550    -3.2790     0.3180 ca         1 N13      -0.136000
     32 C07         -7.0140    -2.9160     0.5720 ca         1 N13      -0.049000
     33 C09         -6.5710    -1.6500     0.1570 ca         1 N13       0.068400
     34 N01         -5.3100    -1.1010     0.3050 nc         1 N13      -0.572100
     35 H1           6.0750    -2.6750     0.4980 ha         1 N13       0.166000
     36 H2           9.1890    -2.8360    -2.4500 ha         1 N13       0.136000
     37 H3           9.4080    -0.3480    -2.3860 ha         1 N13       0.118000
     38 H4           7.9550     0.9840    -0.8780 ha         1 N13       0.112000
     39 H5           6.3430     1.0810     0.7050 hn         1 N13       0.150000
     40 H6           4.3180     0.7910     3.4050 hc         1 N13       0.074700
     41 H7           5.2240     1.8700     2.3080 hc         1 N13       0.074700
     42 H8           1.7680    -0.0940     1.9810 ha         1 N13       0.147000
     43 H9           3.6420     3.5460     1.1180 hn         1 N13       0.372000
     44 H10         -0.6990     3.4820    -0.2660 ha         1 N13       0.136000
     45 H11         -0.3880    -0.4670     1.5540 ha         1 N13       0.117000
     46 H12         -2.7630    -0.9040     1.0090 ha         1 N13       0.144000
     47 H13         -3.2800     3.9530    -1.2690 hn         1 N13       0.380000
     48 H14         -7.0660     1.1960    -1.2370 hn         1 N13       0.370000
     49 H15         -9.4170    -0.4130    -1.2590 ha         1 N13       0.117000
     50 H16        -10.2580    -2.6670    -0.5340 ha         1 N13       0.111000
     51 H17         -8.7190    -4.2550     0.6320 ha         1 N13       0.113000
     52 H18         -6.3370    -3.6000     1.0780 ha         1 N13       0.127000
@<TRIPOS>BOND
     1     1     9 1   
     2     1    10 2   
     3     1    11 1   
     4     2     3 ar  
     5     2     8 ar  
     6     2    35 1   
     7     3     4 1   
     8     3     5 ar  
     9     5     6 ar  
    10     5    36 1   
    11     6     7 ar  
    12     6    37 1   
    13     7     8 ar  
    14     7    38 1   
    15     8     9 1   
    16     9    39 1   
    17    11    12 1   
    18    11    40 1   
    19    11    41 1   
    20    12    13 2   
    21    12    14 1   
    22    13    16 1   
    23    13    42 1   
    24    14    15 1   
    25    14    43 1   
    26    15    16 2   
    27    16    17 1   
    28    17    18 ar  
    29    17    19 ar  
    30    18    22 ar  
    31    18    44 1   
    32    19    20 ar  
    33    19    45 1   
    34    20    21 ar  
    35    20    46 1   
    36    21    22 ar  
    37    21    25 1   
    38    22    23 1   
    39    23    24 1   
    40    23    47 1   
    41    24    25 2   
    42    25    26 1   
    43    26    27 1   
    44    26    34 2   
    45    27    28 1   
    46    27    48 1   
    47    28    29 ar  
    48    28    33 ar  
    49    29    30 ar  
    50    29    49 1   
    51    30    31 ar  
    52    30    50 1   
    53    31    32 ar  
    54    31    51 1   
    55    32    33 ar  
    56    32    52 1   
    57    33    34 1   
@<TRIPOS>SUBSTRUCTURE
     1 N13         1 TEMP              0 ****  ****    0 ROOT
