@<TRIPOS>MOLECULE
N13
   52    57     1     0     0
SMALL
bcc


@<TRIPOS>ATOM
      1 CA           5.1820     0.3730     0.3570 c          1 N13       0.670100
      2 C29          7.3340    -1.3900    -0.8610 ca         1 N13      -0.197000
      3 C30          8.4310    -2.1150    -1.2870 ca         1 N13       0.164900
      4 FA           8.3060    -2.8200    -2.4240 f          1 N13      -0.139900
      5 C31          9.6320    -2.1540    -0.6120 ca         1 N13      -0.196000
      6 C32          9.7250    -1.4170     0.5620 ca         1 N13      -0.073000
      7 C33          8.6530    -0.6770     1.0270 ca         1 N13      -0.206000
      8 C28          7.4470    -0.6560     0.3190 ca         1 N13       0.098600
      9 NB           6.4150     0.1100     0.8600 ns         1 N13      -0.476100
     10 OB           4.7640    -0.0480    -0.7020 o          1 N13      -0.549100
     11 C26          4.3560     1.2700     1.2680 c3         1 N13      -0.099100
     12 C21          2.9970     1.5270     0.7300 cc         1 N13      -0.092600
     13 C25          1.8000     0.8930     0.9610 cd         1 N13      -0.269300
     14 N22          2.7280     2.5060    -0.1520 na         1 N13       0.016400
     15 N23          1.4560     2.5590    -0.5090 nc         1 N13      -0.509800
     16 C24          0.8640     1.5790     0.1590 cd         1 N13       0.367800
     17 C16         -0.5750     1.3350     0.0220 ca         1 N13      -0.072500
     18 C17         -1.3580     2.1880    -0.7350 ca         1 N13      -0.127000
     19 C15         -1.1590     0.2200     0.6740 ca         1 N13      -0.154000
     20 C14         -2.5010    -0.0570     0.5870 ca         1 N13      -0.042000
     21 C18         -3.3060     0.7990    -0.1740 ca         1 N13      -0.187900
     22 C19         -2.7200     1.9010    -0.8190 ca         1 N13      -0.049200
     23 N11         -3.7300     2.5350    -1.4650 na         1 N13       0.004900
     24 N12         -4.8990     1.9380    -1.2900 nc         1 N13      -0.529100
     25 C13         -4.6830     0.8920    -0.5210 cd         1 N13       0.328600
     26 C02         -5.7680     0.0210    -0.1310 cd         1 N13       0.412500
     27 N03         -7.0500     0.2380    -0.5260 na         1 N13      -0.246300
     28 C08         -7.8150    -0.7570     0.0160 ca         1 N13      -0.077200
     29 C04         -9.1740    -1.0420    -0.0450 ca         1 N13      -0.133000
     30 C05         -9.6060    -2.1610     0.6460 ca         1 N13      -0.112000
     31 C06         -8.7140    -2.9660     1.3720 ca         1 N13      -0.154000
     32 C07         -7.3630    -2.6760     1.4280 ca         1 N13      -0.067000
     33 C09         -6.9070    -1.5530     0.7380 ca         1 N13       0.068400
     34 N01         -5.6390    -1.0390     0.6250 nc         1 N13      -0.572100
     35 H1           6.4230    -1.4090    -1.4380 ha         1 N13       0.184000
     36 H2          10.4640    -2.7360    -0.9830 ha         1 N13       0.154000
     37 H3          10.6500    -1.4180     1.1230 ha         1 N13       0.136000
     38 H4           8.7480    -0.1100     1.9440 ha         1 N13       0.130000
     39 H5           6.6320     0.5410     1.7470 hn         1 N13       0.316500
     40 H6           4.2730     0.8010     2.2510 hc         1 N13       0.074700
     41 H7           4.8940     2.2090     1.4260 hc         1 N13       0.074700
     42 H8           1.6390     0.0570     1.6210 ha         1 N13       0.165000
     43 H9           3.3790     3.1710    -0.5410 hn         1 N13       0.321700
     44 H10         -0.9320     3.0470    -1.2350 ha         1 N13       0.154000
     45 H11         -0.5290    -0.4380     1.2580 ha         1 N13       0.135000
     46 H12         -2.9270    -0.9140     1.0890 ha         1 N13       0.162000
     47 H13         -3.6760     3.3670    -2.0310 hn         1 N13       0.329700
     48 H14         -7.3680     1.0010    -1.1030 hn         1 N13       0.319700
     49 H15         -9.8630    -0.4230    -0.6050 ha         1 N13       0.135000
     50 H16        -10.6560    -2.4220     0.6270 ha         1 N13       0.129000
     51 H17         -9.0960    -3.8330     1.8960 ha         1 N13       0.131000
     52 H18         -6.6780    -3.2990     1.9900 ha         1 N13       0.145000
@<TRIPOS>BOND
     1     1     9 1   
     2     1    10 2   
     3     1    11 1   
     4     2     3 ar  
     5     2     8 ar  
     6     2    35 1   
     7     3     4 1   
     8     3     5 ar  
     9     5     6 ar  
    10     5    36 1   
    11     6     7 ar  
    12     6    37 1   
    13     7     8 ar  
    14     7    38 1   
    15     8     9 1   
    16     9    39 1   
    17    11    12 1   
    18    11    40 1   
    19    11    41 1   
    20    12    13 2   
    21    12    14 1   
    22    13    16 1   
    23    13    42 1   
    24    14    15 1   
    25    14    43 1   
    26    15    16 2   
    27    16    17 1   
    28    17    18 ar  
    29    17    19 ar  
    30    18    22 ar  
    31    18    44 1   
    32    19    20 ar  
    33    19    45 1   
    34    20    21 ar  
    35    20    46 1   
    36    21    22 ar  
    37    21    25 1   
    38    22    23 1   
    39    23    24 1   
    40    23    47 1   
    41    24    25 2   
    42    25    26 1   
    43    26    27 1   
    44    26    34 2   
    45    27    28 1   
    46    27    48 1   
    47    28    29 ar  
    48    28    33 ar  
    49    29    30 ar  
    50    29    49 1   
    51    30    31 ar  
    52    30    50 1   
    53    31    32 ar  
    54    31    51 1   
    55    32    33 ar  
    56    32    52 1   
    57    33    34 1   
@<TRIPOS>SUBSTRUCTURE
     1 N13         1 TEMP              0 ****  ****    0 ROOT
