@<TRIPOS>MOLECULE
N15
   57    61     1     0     0
SMALL
abcg2


@<TRIPOS>ATOM
      1 CAA         10.5500     2.6810    -0.0370 c3         1 N15      -0.089100
      2 CBE          9.6540     1.7540     0.7770 c3         1 N15      -0.056700
      3 CAB          9.1410     2.4620     2.0270 c3         1 N15      -0.089100
      4 CAN          8.5160     1.2230    -0.0960 c3         1 N15      -0.096400
      5 CAM          7.6290     0.2010     0.6050 c3         1 N15       0.098000
      6 NAS          6.7100    -0.4340    -0.3150 ns         1 N15      -0.502900
      7 C            5.3790    -0.3050    -0.2830 c          1 N15       0.589100
      8 O            4.7530     0.3030     0.5690 o          1 N15      -0.579100
      9 CA           4.6640    -0.9660    -1.4590 c3         1 N15      -0.002400
     10 N            3.3720    -1.4500    -1.0670 na         1 N15       0.139800
     11 CAL          2.2020    -0.7990    -1.1360 cc         1 N15      -0.122000
     12 NAP          3.2670    -2.6270    -0.4520 nc         1 N15      -0.526800
     13 CAJ          1.9930    -2.7430    -0.1440 cd         1 N15       0.265900
     14 CAX          1.2520    -1.6130    -0.5520 cd         1 N15      -0.168000
     15 CAW         -0.1800    -1.3680    -0.4000 ca         1 N15       0.063000
     16 CAK         -1.0510    -2.4230    -0.2000 ca         1 N15      -0.139000
     17 CAF         -0.6760    -0.0380    -0.4540 ca         1 N15      -0.147000
     18 CAI         -2.0110     0.2520    -0.3150 ca         1 N15      -0.017000
     19 CBD         -2.9030    -0.8090    -0.1090 ca         1 N15      -0.196900
     20 CBC         -2.4060    -2.1210    -0.0540 ca         1 N15      -0.040200
     21 NAT         -3.4830    -2.9200     0.1480 na         1 N15      -0.048400
     22 NAQ         -4.6150    -2.2360     0.2260 nc         1 N15      -0.533100
     23 CAZ         -4.3050    -0.9660     0.0770 cd         1 N15       0.331600
     24 CAY         -5.3280     0.0550     0.1150 cd         1 N15       0.413500
     25 NAU         -6.6400    -0.2430     0.3040 na         1 N15      -0.297600
     26 CBB         -7.3300     0.9380     0.2860 ca         1 N15      -0.077200
     27 CAH         -8.6780     1.2460     0.4270 ca         1 N15      -0.115000
     28 CAE         -9.0200     2.5850     0.3520 ca         1 N15      -0.094000
     29 CAD         -8.0530     3.5810     0.1450 ca         1 N15      -0.136000
     30 CAG         -6.7130     3.2660     0.0050 ca         1 N15      -0.049000
     31 CBA         -6.3470     1.9220     0.0780 ca         1 N15       0.068400
     32 NAR         -5.1090     1.3360    -0.0250 nc         1 N15      -0.572100
     33 H1          11.4120     3.0110     0.5450 hc         1 N15       0.035033
     34 H2          10.9240     2.1860    -0.9340 hc         1 N15       0.035033
     35 H3          10.0040     3.5730    -0.3530 hc         1 N15       0.035033
     36 H4          10.2560     0.8940     1.0960 hc         1 N15       0.043700
     37 H5           8.5850     1.7930     2.6850 hc         1 N15       0.035033
     38 H6           9.9670     2.8730     2.6100 hc         1 N15       0.035033
     39 H7           8.4800     3.2910     1.7620 hc         1 N15       0.035033
     40 H8           7.9000     2.0580    -0.4480 hc         1 N15       0.042200
     41 H9           8.9470     0.7580    -0.9890 hc         1 N15       0.042200
     42 H10          8.2460    -0.5710     1.0730 h1         1 N15       0.062200
     43 H11          7.0430     0.6630     1.3970 h1         1 N15       0.062200
     44 H12          7.1170    -0.9770    -1.0600 hn         1 N15       0.309500
     45 H13          4.5360    -0.2200    -2.2450 h1         1 N15       0.079200
     46 H14          5.2360    -1.7920    -1.8790 h1         1 N15       0.079200
     47 H15          2.1190     0.1660    -1.6110 h4         1 N15       0.159000
     48 H16          1.6380    -3.6250     0.3690 h4         1 N15       0.038100
     49 H17         -0.7050    -3.4490    -0.1740 ha         1 N15       0.120000
     50 H18          0.0230     0.7750    -0.5940 ha         1 N15       0.116000
     51 H19         -2.3640     1.2720    -0.3570 ha         1 N15       0.143000
     52 H20         -3.5010    -3.9240     0.2310 hn         1 N15       0.379000
     53 H21         -7.0210    -1.1670     0.4350 hn         1 N15       0.370000
     54 H22         -9.4250     0.4790     0.5860 ha         1 N15       0.117000
     55 H23        -10.0590     2.8700     0.4560 ha         1 N15       0.111000
     56 H24         -8.3650     4.6160     0.0940 ha         1 N15       0.113000
     57 H25         -5.9680     4.0350    -0.1540 ha         1 N15       0.127000
@<TRIPOS>BOND
     1     1     2 1   
     2     1    33 1   
     3     1    34 1   
     4     1    35 1   
     5     2     3 1   
     6     2     4 1   
     7     2    36 1   
     8     3    37 1   
     9     3    38 1   
    10     3    39 1   
    11     4     5 1   
    12     4    40 1   
    13     4    41 1   
    14     5     6 1   
    15     5    42 1   
    16     5    43 1   
    17     6     7 1   
    18     6    44 1   
    19     7     8 2   
    20     7     9 1   
    21     9    10 1   
    22     9    45 1   
    23     9    46 1   
    24    10    11 1   
    25    10    12 1   
    26    11    14 2   
    27    11    47 1   
    28    12    13 2   
    29    13    14 1   
    30    13    48 1   
    31    14    15 1   
    32    15    16 ar  
    33    15    17 ar  
    34    16    20 ar  
    35    16    49 1   
    36    17    18 ar  
    37    17    50 1   
    38    18    19 ar  
    39    18    51 1   
    40    19    20 ar  
    41    19    23 1   
    42    20    21 1   
    43    21    22 1   
    44    21    52 1   
    45    22    23 2   
    46    23    24 1   
    47    24    25 1   
    48    24    32 2   
    49    25    26 1   
    50    25    53 1   
    51    26    27 ar  
    52    26    31 ar  
    53    27    28 ar  
    54    27    54 1   
    55    28    29 ar  
    56    28    55 1   
    57    29    30 ar  
    58    29    56 1   
    59    30    31 ar  
    60    30    57 1   
    61    31    32 1   
@<TRIPOS>SUBSTRUCTURE
     1 N15         1 TEMP              0 ****  ****    0 ROOT
