@<TRIPOS>MOLECULE
N15
   57    61     1     0     0
SMALL
No Charge or Current Charge


@<TRIPOS>ATOM
      1 CAA         10.6400     1.6650     0.7790 c3         1 N15      -0.089100
      2 CBE          9.2120     1.4330     1.3210 c3         1 N15      -0.056700
      3 CAB          8.6390     2.7350     1.9320 c3         1 N15      -0.089100
      4 CAN          8.2930     0.8290     0.2250 c3         1 N15      -0.096400
      5 CAM          6.8910     0.4130     0.7230 c3         1 N15       0.098000
      6 NAS          6.1120    -0.2530    -0.3240 ns         1 N15      -0.502900
      7 C            5.4600     0.3930    -1.3550 c          1 N15       0.589100
      8 O            5.4600     1.6110    -1.4660 o          1 N15      -0.579100
      9 CA           4.7350    -0.5220    -2.3380 c3         1 N15      -0.002400
     10 N            3.5040    -1.0750    -1.7630 na         1 N15       0.139800
     11 CAL          2.2820    -0.4200    -1.6520 cc         1 N15      -0.122000
     12 NAP          3.4940    -2.3580    -1.2650 nc         1 N15      -0.526800
     13 CAJ          2.2520    -2.4940    -0.8430 cd         1 N15       0.265900
     14 CAX          1.4610    -1.3380    -1.0530 cd         1 N15      -0.168000
     15 CAW          0.0410    -1.1540    -0.6990 ca         1 N15       0.063000
     16 CAK         -0.6850    -2.1990    -0.0780 ca         1 N15      -0.139000
     17 CAF         -0.6180     0.0740    -0.9750 ca         1 N15      -0.147000
     18 CAI         -1.9770     0.2640    -0.6410 ca         1 N15      -0.017000
     19 CBD         -2.6520    -0.8010    -0.0290 ca         1 N15      -0.196900
     20 CBC         -2.0310    -1.9780     0.2390 ca         1 N15      -0.040200
     21 NAT         -2.9390    -2.8290     0.8380 na         1 N15      -0.048400
     22 NAQ         -4.1880    -2.1970     0.9680 nc         1 N15      -0.533100
     23 CAZ         -4.0200    -0.9620     0.4420 cd         1 N15       0.331600
     24 CAY         -5.1040     0.0130     0.3910 cd         1 N15       0.413500
     25 NAU         -6.3770    -0.3040     0.8940 na         1 N15      -0.297600
     26 CBB         -7.1030     0.8320     0.6730 ca         1 N15      -0.077200
     27 CAH         -8.4470     1.0870     0.9770 ca         1 N15      -0.115000
     28 CAE         -8.9660     2.3550     0.6440 ca         1 N15      -0.094000
     29 CAD         -8.1390     3.3210     0.0240 ca         1 N15      -0.136000
     30 CAG         -6.7890     3.0240    -0.2660 ca         1 N15      -0.049000
     31 CBA         -6.2930     1.7560     0.0750 ca         1 N15       0.068400
     32 NAR         -5.0140     1.2640    -0.1180 nc         1 N15      -0.572100
     33 H1          11.3000     2.0400     1.5710 hc         1 N15       0.035033
     34 H2          11.0690     0.7300     0.4000 hc         1 N15       0.035033
     35 H3          10.6350     2.3970    -0.0380 hc         1 N15       0.035033
     36 H4           9.2910     0.6970     2.1320 hc         1 N15       0.043700
     37 H5           7.6840     2.5500     2.4380 hc         1 N15       0.035033
     38 H6           9.3300     3.1500     2.6750 hc         1 N15       0.035033
     39 H7           8.4770     3.4930     1.1560 hc         1 N15       0.035033
     40 H8           8.1880     1.5490    -0.5960 hc         1 N15       0.042200
     41 H9           8.7840    -0.0570    -0.1960 hc         1 N15       0.042200
     42 H10          6.9940    -0.2760     1.5720 h1         1 N15       0.062200
     43 H11          6.3360     1.2950     1.0700 h1         1 N15       0.062200
     44 H12          6.0310    -1.2640    -0.2980 hn         1 N15       0.309500
     45 H13          4.4870     0.0560    -3.2350 h1         1 N15       0.079200
     46 H14          5.4100    -1.3370    -2.6210 h1         1 N15       0.079200
     47 H15          2.1220     0.5950    -1.9950 h4         1 N15       0.159000
     48 H16          1.9570    -3.4330    -0.3920 h4         1 N15       0.038100
     49 H17         -0.2220    -3.1550     0.1510 ha         1 N15       0.120000
     50 H18         -0.0820     0.8900    -1.4500 ha         1 N15       0.116000
     51 H19         -2.4710     1.2080    -0.8570 ha         1 N15       0.143000
     52 H20         -2.7680    -3.7830     1.1550 hn         1 N15       0.379000
     53 H21         -6.6600    -1.1790     1.3160 hn         1 N15       0.370000
     54 H22         -9.0710     0.3340     1.4540 ha         1 N15       0.117000
     55 H23        -10.0050     2.5910     0.8640 ha         1 N15       0.111000
     56 H24         -8.5440     4.2980    -0.2310 ha         1 N15       0.113000
     57 H25         -6.1460     3.7600    -0.7420 ha         1 N15       0.127000
@<TRIPOS>BOND
     1     1     2 1   
     2     1    33 1   
     3     1    34 1   
     4     1    35 1   
     5     2     3 1   
     6     2     4 1   
     7     2    36 1   
     8     3    37 1   
     9     3    38 1   
    10     3    39 1   
    11     4     5 1   
    12     4    40 1   
    13     4    41 1   
    14     5     6 1   
    15     5    42 1   
    16     5    43 1   
    17     6     7 1   
    18     6    44 1   
    19     7     8 2   
    20     7     9 1   
    21     9    10 1   
    22     9    45 1   
    23     9    46 1   
    24    10    11 1   
    25    10    12 1   
    26    11    14 2   
    27    11    47 1   
    28    12    13 2   
    29    13    14 1   
    30    13    48 1   
    31    14    15 1   
    32    15    16 ar  
    33    15    17 ar  
    34    16    20 ar  
    35    16    49 1   
    36    17    18 ar  
    37    17    50 1   
    38    18    19 ar  
    39    18    51 1   
    40    19    20 ar  
    41    19    23 1   
    42    20    21 1   
    43    21    22 1   
    44    21    52 1   
    45    22    23 2   
    46    23    24 1   
    47    24    25 1   
    48    24    32 2   
    49    25    26 1   
    50    25    53 1   
    51    26    27 ar  
    52    26    31 ar  
    53    27    28 ar  
    54    27    54 1   
    55    28    29 ar  
    56    28    55 1   
    57    29    30 ar  
    58    29    56 1   
    59    30    31 ar  
    60    30    57 1   
    61    31    32 1   
@<TRIPOS>SUBSTRUCTURE
     1 N15         1 TEMP              0 ****  ****    0 ROOT
