@<TRIPOS>MOLECULE
N16
   41    43     1     0     0
SMALL
No Charge or Current Charge


@<TRIPOS>ATOM
      1 CD1         -5.1850     0.6490    -0.1820 ca         1 N16      -0.107500
      2 CE1         -6.3580    -0.0910    -0.4180 ca         1 N16      -0.109500
      3 CZ          -6.4580    -1.4150     0.0410 ca         1 N16      -0.110000
      4 CE2         -5.3860    -1.9990     0.7360 ca         1 N16      -0.109500
      5 CD2         -4.2140    -1.2600     0.9730 ca         1 N16      -0.107500
      6 CG          -4.1070     0.0690     0.5150 ca         1 N16      -0.086300
      7 CB          -2.8360     0.8730     0.7630 c3         1 N16      -0.034100
      8 CA          -1.9530     1.0210    -0.4980 c5         1 N16       0.008700
      9 C           -0.6180     1.7620    -0.1770 c          1 N16       0.608300
     10 O           -0.4740     2.9000     0.2470 o          1 N16      -0.559100
     11 N           -1.5000    -0.2770    -1.0320 ns         1 N16      -0.498900
     12 CAR         -0.1520    -0.4300    -0.9940 c          1 N16       0.598200
     13 OAB          0.4290    -1.4310    -1.3790 o          1 N16      -0.620000
     14 CAT          0.4530     0.7810    -0.4400 ce         1 N16      -0.497400
     15 CAQ          1.7600     0.9620    -0.1540 c2         1 N16       0.325800
     16 CAA          2.4120     2.2240     0.3860 c3         1 N16      -0.095900
     17 NAO          2.6110    -0.0960    -0.4130 nu         1 N16      -0.815000
     18 CAV          3.9020    -0.4120     0.0150 ca         1 N16       0.264000
     19 CAL          4.2970    -0.2050     1.3500 ca         1 N16      -0.121500
     20 CAH          5.5960    -0.5470     1.7680 ca         1 N16      -0.093500
     21 CAE          6.5020    -1.1070     0.8520 ca         1 N16      -0.112000
     22 CAI          6.1080    -1.3290    -0.4790 ca         1 N16      -0.093500
     23 CAM          4.8080    -0.9860    -0.8920 ca         1 N16      -0.121500
     24 HD1         -5.1150     1.6730    -0.5420 ha         1 N16       0.114000
     25 HE1         -7.1870     0.3620    -0.9570 ha         1 N16       0.113000
     26 HZ          -7.3650    -1.9870    -0.1420 ha         1 N16       0.113000
     27 HE2         -5.4630    -3.0240     1.0910 ha         1 N16       0.113000
     28 HD2         -3.3880    -1.7220     1.5090 ha         1 N16       0.114000
     29 HB          -3.1040     1.8690     1.1370 hc         1 N16       0.065700
     30 HBA         -2.2500     0.4070     1.5650 hc         1 N16       0.065700
     31 HA          -2.4890     1.6030    -1.2600 h1         1 N16       0.073700
     32 HN          -2.0800    -1.0320    -1.3780 hn         1 N16       0.336500
     33 HAA          2.1630     2.3690     1.4430 hc         1 N16       0.073700
     34 HAAA         3.5030     2.2140     0.2940 hc         1 N16       0.073700
     35 HAAB         2.0710     3.1060    -0.1650 hc         1 N16       0.073700
     36 HNAO         2.1630    -0.8180    -0.9910 hn         1 N16       0.553000
     37 HAL          3.5950     0.2120     2.0670 ha         1 N16       0.125500
     38 HAH          5.8960    -0.3830     2.8010 ha         1 N16       0.119500
     39 HAE          7.5070    -1.3730     1.1740 ha         1 N16       0.119000
     40 HAI          6.8080    -1.7670    -1.1880 ha         1 N16       0.119500
     41 HAM          4.5080    -1.1590    -1.9230 ha         1 N16       0.125500
@<TRIPOS>BOND
     1     1     2 ar  
     2     1     6 ar  
     3     1    24 1   
     4     2     3 ar  
     5     2    25 1   
     6     3     4 ar  
     7     3    26 1   
     8     4     5 ar  
     9     4    27 1   
    10     5     6 ar  
    11     5    28 1   
    12     6     7 1   
    13     7     8 1   
    14     7    29 1   
    15     7    30 1   
    16     8     9 1   
    17     8    11 1   
    18     8    31 1   
    19     9    10 2   
    20     9    14 1   
    21    11    12 1   
    22    11    32 1   
    23    12    13 2   
    24    12    14 1   
    25    14    15 2   
    26    15    16 1   
    27    15    17 1   
    28    16    33 1   
    29    16    34 1   
    30    16    35 1   
    31    17    18 1   
    32    17    36 1   
    33    18    19 ar  
    34    18    23 ar  
    35    19    20 ar  
    36    19    37 1   
    37    20    21 ar  
    38    20    38 1   
    39    21    22 ar  
    40    21    39 1   
    41    22    23 ar  
    42    22    40 1   
    43    23    41 1   
@<TRIPOS>SUBSTRUCTURE
     1 N16         1 TEMP              0 ****  ****    0 ROOT
