@<TRIPOS>MOLECULE
N16
   41    43     1     0     0
SMALL
abcg2


@<TRIPOS>ATOM
      1 CD1         -5.1840     0.7850    -0.3070 ca         1 N16      -0.107500
      2 CE1         -6.3400     0.1140    -0.6770 ca         1 N16      -0.109500
      3 CZ          -6.5390    -1.2040    -0.2810 ca         1 N16      -0.110000
      4 CE2         -5.5750    -1.8400     0.4890 ca         1 N16      -0.109500
      5 CD2         -4.4180    -1.1630     0.8580 ca         1 N16      -0.107500
      6 CG          -4.2080     0.1560     0.4650 ca         1 N16      -0.086300
      7 CB          -2.9340     0.8720     0.8140 c3         1 N16      -0.034100
      8 CA          -1.9290     0.8310    -0.3410 c5         1 N16       0.008700
      9 C           -0.6100     1.5110     0.0350 c          1 N16       0.608300
     10 O           -0.5610     2.6700     0.4140 o          1 N16      -0.559100
     11 N           -1.5150    -0.5040    -0.6880 ns         1 N16      -0.498900
     12 CAR         -0.1870    -0.7120    -0.5850 c          1 N16       0.598200
     13 OAB          0.3860    -1.7730    -0.8470 o          1 N16      -0.620000
     14 CAT          0.4260     0.5320    -0.1250 ce         1 N16      -0.497400
     15 CAQ          1.7930     0.6870     0.0950 c2         1 N16       0.325800
     16 CAA          2.3650     2.0000     0.5130 c3         1 N16      -0.095900
     17 NAO          2.5930    -0.3570    -0.0980 nu         1 N16      -0.815000
     18 CAV          3.9830    -0.4500     0.1150 ca         1 N16       0.264000
     19 CAL          4.5720    -0.0330     1.3040 ca         1 N16      -0.121500
     20 CAH          5.9420    -0.1680     1.4770 ca         1 N16      -0.093500
     21 CAE          6.7250    -0.7390     0.4840 ca         1 N16      -0.112000
     22 CAI          6.1290    -1.1790    -0.6920 ca         1 N16      -0.093500
     23 CAM          4.7630    -1.0330    -0.8800 ca         1 N16      -0.121500
     24 HD1         -5.0380     1.8130    -0.6200 ha         1 N16       0.114000
     25 HE1         -7.0880     0.6200    -1.2730 ha         1 N16       0.113000
     26 HZ          -7.4410    -1.7280    -0.5690 ha         1 N16       0.113000
     27 HE2         -5.7240    -2.8640     0.8070 ha         1 N16       0.113000
     28 HD2         -3.6750    -1.6670     1.4640 ha         1 N16       0.114000
     29 HB          -3.1380     1.9190     1.0460 hc         1 N16       0.065700
     30 HBA         -2.4770     0.4250     1.7000 hc         1 N16       0.065700
     31 HA          -2.3540     1.3450    -1.2110 h1         1 N16       0.073700
     32 HN          -2.1450    -1.2020    -1.0500 hn         1 N16       0.336500
     33 HAA          2.2530     2.1370     1.5890 hc         1 N16       0.073700
     34 HAAA         3.4220     2.0790     0.2710 hc         1 N16       0.073700
     35 HAAB         1.8300     2.8120     0.0310 hc         1 N16       0.073700
     36 HNAO         2.1230    -1.1880    -0.4630 hn         1 N16       0.553000
     37 HAL          3.9680     0.3800     2.1020 ha         1 N16       0.125500
     38 HAH          6.3940     0.1660     2.4020 ha         1 N16       0.119500
     39 HAE          7.7920    -0.8480     0.6270 ha         1 N16       0.119000
     40 HAI          6.7290    -1.6310    -1.4710 ha         1 N16       0.119500
     41 HAM          4.3010    -1.3670    -1.8000 ha         1 N16       0.125500
@<TRIPOS>BOND
     1     1     2 ar  
     2     1     6 ar  
     3     1    24 1   
     4     2     3 ar  
     5     2    25 1   
     6     3     4 ar  
     7     3    26 1   
     8     4     5 ar  
     9     4    27 1   
    10     5     6 ar  
    11     5    28 1   
    12     6     7 1   
    13     7     8 1   
    14     7    29 1   
    15     7    30 1   
    16     8     9 1   
    17     8    11 1   
    18     8    31 1   
    19     9    10 2   
    20     9    14 1   
    21    11    12 1   
    22    11    32 1   
    23    12    13 2   
    24    12    14 1   
    25    14    15 2   
    26    15    16 1   
    27    15    17 1   
    28    16    33 1   
    29    16    34 1   
    30    16    35 1   
    31    17    18 1   
    32    17    36 1   
    33    18    19 ar  
    34    18    23 ar  
    35    19    20 ar  
    36    19    37 1   
    37    20    21 ar  
    38    20    38 1   
    39    21    22 ar  
    40    21    39 1   
    41    22    23 ar  
    42    22    40 1   
    43    23    41 1   
@<TRIPOS>SUBSTRUCTURE
     1 N16         1 TEMP              0 ****  ****    0 ROOT
