@<TRIPOS>MOLECULE
N17
   46    49     1     0     0
SMALL
No Charge or Current Charge


@<TRIPOS>ATOM
      1 O1           0.7660    -0.8760     0.3680 o          1 N17      -0.567100
      2 C9           0.9370     0.2210    -0.1550 c          1 N17       0.619700
      3 C8           2.3320     0.8080    -0.3050 ca         1 N17      -0.138600
      4 C7           2.5590     2.0740    -0.9000 ca         1 N17      -0.094000
      5 C6           3.8630     2.5790    -1.0230 ca         1 N17      -0.099000
      6 C5           4.9590     1.8360    -0.5590 ca         1 N17      -0.099000
      7 C21          3.4480     0.0710     0.1590 ca         1 N17      -0.073000
      8 C4           4.7610     0.5760     0.0370 ca         1 N17       0.007800
      9 N1           5.8530    -0.1640     0.5020 na         1 N17      -0.081300
     10 C3           7.0900    -0.2020    -0.0940 cc         1 N17      -0.222000
     11 C22          5.8540    -0.9430     1.6360 cc         1 N17       0.410400
     12 N4           7.0560    -1.4890     1.7880 nd         1 N17      -0.668000
     13 C2           7.8160    -1.0340     0.7220 cd         1 N17       0.255300
     14 C1           9.2500    -1.4480     0.5530 c3         1 N17      -0.109400
     15 N2          -0.1050     1.0070    -0.6350 ns         1 N17      -0.143000
     16 C10         -1.5130     0.8050    -0.6970 ca         1 N17      -0.021000
     17 C20         -2.1440    -0.4190    -0.3760 ca         1 N17      -0.136000
     18 C19         -3.5420    -0.5430    -0.4660 ca         1 N17      -0.087500
     19 C13         -4.3250     0.5540    -0.8720 ca         1 N17       0.066100
     20 C12         -3.7040     1.7650    -1.2100 ca         1 N17      -0.087500
     21 C11         -2.3060     1.8890    -1.1210 ca         1 N17      -0.136000
     22 O2          -5.6940     0.4510    -0.9810 os         1 N17      -0.244200
     23 C14         -6.4690    -0.2230    -0.0650 ca         1 N17       0.172100
     24 C18         -7.6140    -0.9020    -0.4960 ca         1 N17      -0.219000
     25 C17         -8.4030    -1.5700     0.4500 ca         1 N17       0.362400
     26 N3          -8.1120    -1.5840     1.7710 nb         1 N17      -0.686000
     27 C16         -7.0100    -0.9150     2.1840 ca         1 N17       0.362400
     28 C15         -6.1670    -0.2220     1.3050 ca         1 N17      -0.219000
     29 H1           1.7390     2.6820    -1.2730 ha         1 N17       0.121000
     30 H2           4.0250     3.5530    -1.4800 ha         1 N17       0.125000
     31 H3           5.9600     2.2500    -0.6550 ha         1 N17       0.132000
     32 H4           3.2940    -0.9080     0.6070 ha         1 N17       0.149000
     33 H5           7.3510     0.3210    -1.0050 h4         1 N17       0.159000
     34 H6           4.9940    -1.0590     2.2850 h5         1 N17       0.059100
     35 H7           9.8500    -1.1430     1.4190 hc         1 N17       0.044700
     36 H8           9.3340    -2.5350     0.4480 hc         1 N17       0.044700
     37 H9           9.6900    -0.9890    -0.3390 hc         1 N17       0.044700
     38 H10          0.1920     1.8940    -1.0170 hn         1 N17       0.156000
     39 H11         -1.5730    -1.2880    -0.0670 ha         1 N17       0.132000
     40 H12         -4.0130    -1.4940    -0.2280 ha         1 N17       0.133000
     41 H13         -4.3060     2.6090    -1.5380 ha         1 N17       0.133000
     42 H14         -1.8400     2.8370    -1.3810 ha         1 N17       0.132000
     43 H15         -7.8880    -0.9160    -1.5460 ha         1 N17       0.136000
     44 H16         -9.2970    -2.1120     0.1440 h4         1 N17       0.019100
     45 H17         -6.8020    -0.9350     3.2530 h4         1 N17       0.019100
     46 H18         -5.3020     0.3080     1.6910 ha         1 N17       0.136000
@<TRIPOS>BOND
     1     1     2 2   
     2     2     3 1   
     3     2    15 1   
     4     3     4 ar  
     5     3     7 ar  
     6     4     5 ar  
     7     4    29 1   
     8     5     6 ar  
     9     5    30 1   
    10     6     8 ar  
    11     6    31 1   
    12     7     8 ar  
    13     7    32 1   
    14     8     9 1   
    15     9    10 1   
    16     9    11 1   
    17    10    13 2   
    18    10    33 1   
    19    11    12 2   
    20    11    34 1   
    21    12    13 1   
    22    13    14 1   
    23    14    35 1   
    24    14    36 1   
    25    14    37 1   
    26    15    16 1   
    27    15    38 1   
    28    16    17 ar  
    29    16    21 ar  
    30    17    18 ar  
    31    17    39 1   
    32    18    19 ar  
    33    18    40 1   
    34    19    20 ar  
    35    19    22 1   
    36    20    21 ar  
    37    20    41 1   
    38    21    42 1   
    39    22    23 1   
    40    23    24 ar  
    41    23    28 ar  
    42    24    25 ar  
    43    24    43 1   
    44    25    26 ar  
    45    25    44 1   
    46    26    27 ar  
    47    27    28 ar  
    48    27    45 1   
    49    28    46 1   
@<TRIPOS>SUBSTRUCTURE
     1 N17         1 TEMP              0 ****  ****    0 ROOT
