@<TRIPOS>MOLECULE
N17
   46    49     1     0     0
SMALL
abcg2


@<TRIPOS>ATOM
      1 O1           0.8010    -1.1380    -0.7340 o          1 N17      -0.567100
      2 C9           0.9320     0.0670    -0.8470 c          1 N17       0.619700
      3 C8           2.2860     0.7030    -0.8640 ca         1 N17      -0.138600
      4 C7           2.5580     1.8720    -1.5680 ca         1 N17      -0.094000
      5 C6           3.8450     2.3890    -1.5720 ca         1 N17      -0.099000
      6 C5           4.8580     1.7640    -0.8640 ca         1 N17      -0.099000
      7 C21          3.3100     0.0480    -0.1870 ca         1 N17      -0.073000
      8 C4           4.5860     0.5900    -0.1680 ca         1 N17       0.007800
      9 N1           5.6080    -0.0530     0.5550 na         1 N17      -0.081300
     10 C3           6.9420    -0.1160     0.2230 cc         1 N17      -0.222000
     11 C22          5.4710    -0.7120     1.7330 cc         1 N17       0.410400
     12 N4           6.6090    -1.1820     2.1590 nd         1 N17      -0.668000
     13 C2           7.5440    -0.8220     1.2210 cd         1 N17       0.255300
     14 C1           8.9800    -1.1910     1.3540 c3         1 N17      -0.109400
     15 N2          -0.1030     0.9370    -0.9500 ns         1 N17      -0.143000
     16 C10         -1.4720     0.6450    -0.9580 ca         1 N17      -0.021000
     17 C20         -2.0030    -0.5860    -1.3450 ca         1 N17      -0.136000
     18 C19         -3.3770    -0.7740    -1.3480 ca         1 N17      -0.087500
     19 C13         -4.2240     0.2560    -0.9800 ca         1 N17       0.066100
     20 C12         -3.7100     1.4860    -0.6010 ca         1 N17      -0.087500
     21 C11         -2.3400     1.6740    -0.5910 ca         1 N17      -0.136000
     22 O2          -5.5880     0.0720    -1.0310 os         1 N17      -0.244200
     23 C14         -6.2410    -0.3100     0.0860 ca         1 N17       0.172100
     24 C18         -7.6290    -0.3900     0.0090 ca         1 N17      -0.219000
     25 C17         -8.3250    -0.7850     1.1350 ca         1 N17       0.362400
     26 N3          -7.7510    -1.0970     2.2950 nb         1 N17      -0.686000
     27 C16         -6.4280    -1.0150     2.3490 ca         1 N17       0.362400
     28 C15         -5.6220    -0.6310     1.2880 ca         1 N17      -0.219000
     29 H1           1.7890     2.3730    -2.1420 ha         1 N17       0.121000
     30 H2           4.0600     3.2930    -2.1250 ha         1 N17       0.125000
     31 H3           5.8510     2.1940    -0.8490 ha         1 N17       0.132000
     32 H4           3.1050    -0.8870     0.3190 ha         1 N17       0.149000
     33 H5           7.3300     0.3110    -0.6870 h4         1 N17       0.159000
     34 H6           4.5220    -0.7940     2.2410 h5         1 N17       0.059100
     35 H7           9.4180    -0.7600     2.2560 hc         1 N17       0.044700
     36 H8           9.1070    -2.2730     1.4180 hc         1 N17       0.044700
     37 H9           9.5560    -0.8360     0.5010 hc         1 N17       0.044700
     38 H10          0.1190     1.9180    -0.8750 hn         1 N17       0.156000
     39 H11         -1.3660    -1.4000    -1.6510 ha         1 N17       0.132000
     40 H12         -3.7840    -1.7300    -1.6550 ha         1 N17       0.133000
     41 H13         -4.3700     2.2960    -0.3190 ha         1 N17       0.133000
     42 H14         -1.9400     2.6350    -0.2900 ha         1 N17       0.132000
     43 H15         -8.1520    -0.1460    -0.9070 ha         1 N17       0.136000
     44 H16         -9.4060    -0.8510     1.0950 h4         1 N17       0.019100
     45 H17         -5.9650    -1.2710     3.2950 h4         1 N17       0.019100
     46 H18         -4.5490    -0.5940     1.4180 ha         1 N17       0.136000
@<TRIPOS>BOND
     1     1     2 2   
     2     2     3 1   
     3     2    15 1   
     4     3     4 ar  
     5     3     7 ar  
     6     4     5 ar  
     7     4    29 1   
     8     5     6 ar  
     9     5    30 1   
    10     6     8 ar  
    11     6    31 1   
    12     7     8 ar  
    13     7    32 1   
    14     8     9 1   
    15     9    10 1   
    16     9    11 1   
    17    10    13 2   
    18    10    33 1   
    19    11    12 2   
    20    11    34 1   
    21    12    13 1   
    22    13    14 1   
    23    14    35 1   
    24    14    36 1   
    25    14    37 1   
    26    15    16 1   
    27    15    38 1   
    28    16    17 ar  
    29    16    21 ar  
    30    17    18 ar  
    31    17    39 1   
    32    18    19 ar  
    33    18    40 1   
    34    19    20 ar  
    35    19    22 1   
    36    20    21 ar  
    37    20    41 1   
    38    21    42 1   
    39    22    23 1   
    40    23    24 ar  
    41    23    28 ar  
    42    24    25 ar  
    43    24    43 1   
    44    25    26 ar  
    45    25    44 1   
    46    26    27 ar  
    47    27    28 ar  
    48    27    45 1   
    49    28    46 1   
@<TRIPOS>SUBSTRUCTURE
     1 N17         1 TEMP              0 ****  ****    0 ROOT
