@<TRIPOS>MOLECULE
N18
   28    28     1     0     0
SMALL
abcg2


@<TRIPOS>ATOM
      1 N           -0.6560    -0.1170    -0.0840 ns         1 N18      -0.489900
      2 C           -6.6820     0.6160     0.0090 c3         1 N18       0.152900
      3 O           -5.2940     0.9490    -0.0320 os         1 N18      -0.444100
      4 C1          -4.4230    -0.0480    -0.0090 c          1 N18       0.595100
      5 C2          -3.0080     0.4610    -0.0490 c3         1 N18      -0.164400
      6 C3          -1.9960    -0.6700    -0.0520 c3         1 N18       0.110000
      7 C4           0.4180    -0.8730     0.1270 c          1 N18       0.599300
      8 C5           1.7540    -0.1780     0.0700 cc         1 N18       0.047400
      9 C6           1.9500     1.1520     0.1290 cd         1 N18      -0.364200
     10 C7           3.3000     1.6780     0.0840 c          1 N18       0.588200
     11 C8           4.1110    -0.6510    -0.0580 c          1 N18       0.621000
     12 N1           4.2840     0.7100    -0.0120 ns         1 N18      -0.470500
     13 N2           2.8000    -1.0420    -0.0190 ns         1 N18      -0.502600
     14 O1          -4.7360    -1.2110     0.0410 o          1 N18      -0.477000
     15 O2           0.3830    -2.0710     0.3600 o          1 N18      -0.586100
     16 O3           3.5870     2.8580     0.1270 o          1 N18      -0.520000
     17 O4           5.0320    -1.4340    -0.1280 o          1 N18      -0.539000
     18 H1          -0.5430     0.8390    -0.3840 hn         1 N18       0.327500
     19 H2          -6.9400     0.0980     0.9330 h1         1 N18       0.052367
     20 H3          -7.2160     1.5610    -0.0330 h1         1 N18       0.052367
     21 H4          -6.9710     0.0000    -0.8420 h1         1 N18       0.052367
     22 H5          -2.8910     1.0900    -0.9370 hc         1 N18       0.078700
     23 H6          -2.8490     1.1170     0.8120 hc         1 N18       0.078700
     24 H7          -2.1510    -1.3230    -0.9140 h1         1 N18       0.074700
     25 H8          -2.1060    -1.2820     0.8430 h1         1 N18       0.074700
     26 H9           1.1400     1.8580     0.2300 ha         1 N18       0.216000
     27 H10          5.2440     1.0330    -0.0400 hn         1 N18       0.346500
     28 H11          2.6060    -2.0350    -0.0240 hn         1 N18       0.486000
@<TRIPOS>BOND
     1     1     6 1   
     2     1     7 1   
     3     1    18 1   
     4     2     3 1   
     5     2    19 1   
     6     2    20 1   
     7     2    21 1   
     8     3     4 1   
     9     4     5 1   
    10     4    14 2   
    11     5     6 1   
    12     5    22 1   
    13     5    23 1   
    14     6    24 1   
    15     6    25 1   
    16     7     8 1   
    17     7    15 2   
    18     8     9 2   
    19     8    13 1   
    20     9    10 1   
    21     9    26 1   
    22    10    12 1   
    23    10    16 2   
    24    11    12 1   
    25    11    13 1   
    26    11    17 2   
    27    12    27 1   
    28    13    28 1   
@<TRIPOS>SUBSTRUCTURE
     1 N18         1 TEMP              0 ****  ****    0 ROOT
