@<TRIPOS>MOLECULE
N18
   28    28     1     0     0
SMALL
No Charge or Current Charge


@<TRIPOS>ATOM
      1 N           -0.7140     0.0570    -0.6100 ns         1 N18      -0.489900
      2 C           -6.5190     0.5940    -0.0110 c3         1 N18       0.152900
      3 O           -5.0990     0.7740     0.1470 os         1 N18      -0.444100
      4 C1          -4.3500    -0.3130     0.5170 c          1 N18       0.595100
      5 C2          -2.8700     0.0350     0.6370 c3         1 N18      -0.164400
      6 C3          -2.1370    -0.2910    -0.6770 c3         1 N18       0.110000
      7 C4           0.2530    -0.7020     0.0200 c          1 N18       0.599300
      8 C5           1.6450    -0.1280    -0.0230 cc         1 N18       0.047400
      9 C6           2.0170     1.0620    -0.6210 cd         1 N18      -0.364200
     10 C7           3.4130     1.5210    -0.5970 c          1 N18       0.588200
     11 C8           3.9670    -0.5030     0.6610 c          1 N18       0.621000
     12 N1           4.2600     0.6760     0.0530 ns         1 N18      -0.470500
     13 N2           2.6530    -0.8580     0.5950 ns         1 N18      -0.502600
     14 O1          -4.8020    -1.4320     0.7180 o          1 N18      -0.477000
     15 O2          -0.0180    -1.7640     0.5670 o          1 N18      -0.586100
     16 O3           3.7950     2.5600    -1.1070 o          1 N18      -0.520000
     17 O4           4.8040    -1.1860     1.2180 o          1 N18      -0.539000
     18 H1          -0.4070     0.9180    -1.0440 hn         1 N18       0.327500
     19 H2          -6.9800     0.2630     0.9290 h1         1 N18       0.052367
     20 H3          -6.9930     1.5390    -0.3060 h1         1 N18       0.052367
     21 H4          -6.7360    -0.1520    -0.7870 h1         1 N18       0.052367
     22 H5          -2.7620     1.1100     0.8180 hc         1 N18       0.078700
     23 H6          -2.4270    -0.5460     1.4540 hc         1 N18       0.078700
     24 H7          -2.5970     0.2690    -1.5030 h1         1 N18       0.074700
     25 H8          -2.2360    -1.3620    -0.9020 h1         1 N18       0.074700
     26 H9           1.3350     1.7270    -1.1350 ha         1 N18       0.216000
     27 H10          5.2250     0.9600     0.0890 hn         1 N18       0.346500
     28 H11          2.4280    -1.7400     1.0490 hn         1 N18       0.486000
@<TRIPOS>BOND
     1     1     6 1   
     2     1     7 1   
     3     1    18 1   
     4     2     3 1   
     5     2    19 1   
     6     2    20 1   
     7     2    21 1   
     8     3     4 1   
     9     4     5 1   
    10     4    14 2   
    11     5     6 1   
    12     5    22 1   
    13     5    23 1   
    14     6    24 1   
    15     6    25 1   
    16     7     8 1   
    17     7    15 2   
    18     8     9 2   
    19     8    13 1   
    20     9    10 1   
    21     9    26 1   
    22    10    12 1   
    23    10    16 2   
    24    11    12 1   
    25    11    13 1   
    26    11    17 2   
    27    12    27 1   
    28    13    28 1   
@<TRIPOS>SUBSTRUCTURE
     1 N18         1 TEMP              0 ****  ****    0 ROOT
