@<TRIPOS>MOLECULE
N19
   46    48     1     0     0
SMALL
No Charge or Current Charge


@<TRIPOS>ATOM
      1 C3          -1.9690    -1.0670     0.8990 ca         1 N19      -0.100500
      2 C4          -3.1110    -0.2720     1.0970 ca         1 N19      -0.017000
      3 C5          -3.8670     0.1690    -0.0070 ca         1 N19      -0.256500
      4 C6          -3.4730    -0.1980    -1.3090 ca         1 N19      -0.017000
      5 C7          -2.3300    -0.9940    -1.5020 ca         1 N19      -0.100500
      6 C8          -1.5520    -1.4220    -0.4050 ca         1 N19      -0.088600
      7 C9          -0.3370    -2.2990    -0.6460 c          1 N19       0.607700
      8 O11         -0.3150    -3.0830    -1.5880 o          1 N19      -0.584100
      9 N18          0.7230    -2.2670     0.2890 n          1 N19      -0.400800
     10 C19          1.1810    -0.9880     0.9140 c6         1 N19       0.100000
     11 C20          2.5200    -0.4750     0.2960 c6         1 N19       0.153500
     12 N21          3.5700    -1.5250     0.3230 n7         1 N19      -0.867400
     13 C22          3.1210    -2.7740    -0.3430 c6         1 N19       0.135800
     14 C23          1.7990    -3.3040     0.2770 c6         1 N19       0.087000
     15 S24         -5.3290     1.1840     0.2430 sy         1 N19       1.123600
     16 O25         -6.2100     1.1300    -0.9210 o          1 N19      -0.541000
     17 O27         -5.8310     1.0500     1.6090 o          1 N19      -0.541000
     18 N28         -4.7360     2.7040     0.2020 n8         1 N19      -1.004100
     19 C41          3.0380     0.8050     1.0110 c3         1 N19      -0.029100
     20 C43          4.2590     1.4280     0.3400 ca         1 N19      -0.089300
     21 C44          4.1220     2.1070    -0.8880 ca         1 N19      -0.106500
     22 C45          5.2440     2.6810    -1.5110 ca         1 N19      -0.109500
     23 C46          6.5100     2.5820    -0.9100 ca         1 N19      -0.108000
     24 C47          6.6540     1.9070     0.3140 ca         1 N19      -0.109500
     25 C48          5.5320     1.3330     0.9380 ca         1 N19      -0.106500
     26 H1          -1.4190    -1.4190     1.7700 ha         1 N19       0.130000
     27 H2          -3.4080    -0.0070     2.1110 ha         1 N19       0.140000
     28 H3          -4.0480     0.1290    -2.1740 ha         1 N19       0.140000
     29 H4          -2.0420    -1.2700    -2.5150 ha         1 N19       0.130000
     30 H5           0.4290    -0.1980     0.7920 h1         1 N19       0.059700
     31 H6           1.3150    -1.1500     1.9930 h1         1 N19       0.059700
     32 H7           2.3230    -0.2120    -0.7540 h1         1 N19       0.028700
     33 H8           4.4050    -1.1630    -0.1560 hn         1 N19       0.426000
     34 H10          2.9630    -2.5800    -1.4150 h1         1 N19       0.043200
     35 H11          3.9030    -3.5420    -0.2560 h1         1 N19       0.043200
     36 H12          1.9940    -3.6170     1.3120 h1         1 N19       0.070200
     37 H13          1.4720    -4.2000    -0.2680 h1         1 N19       0.070200
     38 H14         -5.1180     3.0730     1.0700 hn         1 N19       0.473500
     39 H15         -5.3480     3.1210    -0.4950 hn         1 N19       0.473500
     40 H16          2.2340     1.5500     1.0400 hc         1 N19       0.055700
     41 H17          3.2590     0.5740     2.0610 hc         1 N19       0.055700
     42 H18          3.1450     2.1890    -1.3600 ha         1 N19       0.114000
     43 H19          5.1310     3.2030    -2.4580 ha         1 N19       0.113500
     44 H20          7.3780     3.0260    -1.3920 ha         1 N19       0.114000
     45 H21          7.6330     1.8290     0.7800 ha         1 N19       0.113500
     46 H22          5.6540     0.8100     1.8840 ha         1 N19       0.114000
@<TRIPOS>BOND
     1     1     2 ar  
     2     1     6 ar  
     3     1    26 1   
     4     2     3 ar  
     5     2    27 1   
     6     3     4 ar  
     7     3    15 1   
     8     4     5 ar  
     9     4    28 1   
    10     5     6 ar  
    11     5    29 1   
    12     6     7 1   
    13     7     8 2   
    14     7     9 1   
    15     9    10 1   
    16     9    14 1   
    17    10    11 1   
    18    10    30 1   
    19    10    31 1   
    20    11    12 1   
    21    11    19 1   
    22    11    32 1   
    23    12    13 1   
    24    12    33 1   
    25    13    14 1   
    26    13    34 1   
    27    13    35 1   
    28    14    36 1   
    29    14    37 1   
    30    15    16 2   
    31    15    17 2   
    32    15    18 1   
    33    18    38 1   
    34    18    39 1   
    35    19    20 1   
    36    19    40 1   
    37    19    41 1   
    38    20    21 ar  
    39    20    25 ar  
    40    21    22 ar  
    41    21    42 1   
    42    22    23 ar  
    43    22    43 1   
    44    23    24 ar  
    45    23    44 1   
    46    24    25 ar  
    47    24    45 1   
    48    25    46 1   
@<TRIPOS>SUBSTRUCTURE
     1 N19         1 TEMP              0 ****  ****    0 ROOT
