@<TRIPOS>MOLECULE
N19
   46    48     1     0     0
SMALL
bcc


@<TRIPOS>ATOM
      1 C3          -2.0490    -1.2540     0.9990 ca         1 N19      -0.118500
      2 C4          -3.1670    -0.4400     1.1120 ca         1 N19      -0.035000
      3 C5          -3.6670     0.1740    -0.0250 ca         1 N19      -0.256500
      4 C6          -3.0820    -0.0210    -1.2700 ca         1 N19      -0.035000
      5 C7          -1.9840    -0.8560    -1.3750 ca         1 N19      -0.118500
      6 C8          -1.4560    -1.4660    -0.2400 ca         1 N19      -0.088600
      7 C9          -0.3440    -2.4590    -0.4000 c          1 N19       0.674700
      8 O11         -0.5150    -3.4060    -1.1540 o          1 N19      -0.584100
      9 N18          0.7660    -2.2820     0.3410 n          1 N19      -0.467800
     10 C19          1.1680    -1.0230     0.9460 c6         1 N19       0.100000
     11 C20          2.3990    -0.4560     0.2420 c6         1 N19       0.153500
     12 N21          3.4510    -1.4530     0.2530 n7         1 N19      -0.812200
     13 C22          3.0480    -2.6800    -0.4090 c6         1 N19       0.135800
     14 C23          1.8410    -3.2620     0.3030 c6         1 N19       0.087000
     15 S24         -5.1060     1.2020     0.0920 sy         1 N19       1.265200
     16 O25         -5.8920     1.0600    -1.1240 o          1 N19      -0.611800
     17 O27         -5.7400     0.9290     1.3740 o          1 N19      -0.611800
     18 N28         -4.4350     2.7100     0.0250 n8         1 N19      -0.893700
     19 C41          2.8530     0.8190     0.9550 c3         1 N19      -0.029100
     20 C43          4.0530     1.4510     0.3070 ca         1 N19      -0.089300
     21 C44          3.9150     2.2060    -0.8580 ca         1 N19      -0.124500
     22 C45          5.0230     2.7650    -1.4790 ca         1 N19      -0.127500
     23 C46          6.2920     2.5780    -0.9440 ca         1 N19      -0.126000
     24 C47          6.4420     1.8300     0.2150 ca         1 N19      -0.127500
     25 C48          5.3300     1.2710     0.8340 ca         1 N19      -0.124500
     26 H1          -1.6560    -1.7360     1.8850 ha         1 N19       0.148000
     27 H2          -3.6340    -0.2980     2.0770 ha         1 N19       0.158000
     28 H3          -3.4800     0.4590    -2.1540 ha         1 N19       0.158000
     29 H4          -1.5360    -1.0280    -2.3440 ha         1 N19       0.148000
     30 H5           0.3610    -0.2970     0.8920 h1         1 N19       0.059700
     31 H6           1.3970    -1.1930     2.0030 h1         1 N19       0.059700
     32 H7           2.0920    -0.1900    -0.7850 h1         1 N19       0.028700
     33 H8           4.2790    -1.0830    -0.1970 hn         1 N19       0.370800
     34 H10          2.7960    -2.5340    -1.4710 h1         1 N19       0.043200
     35 H11          3.8700    -3.3960    -0.3650 h1         1 N19       0.043200
     36 H12          2.1080    -3.5160     1.3330 h1         1 N19       0.070200
     37 H13          1.4980    -4.1670    -0.1910 h1         1 N19       0.070200
     38 H14         -4.0130     2.9900     0.9050 hn         1 N19       0.418300
     39 H15         -5.1160     3.4020    -0.2720 hn         1 N19       0.418300
     40 H16          2.0200     1.5260     0.9610 hc         1 N19       0.055700
     41 H17          3.0760     0.5770     1.9980 hc         1 N19       0.055700
     42 H18          2.9300     2.3620    -1.2810 ha         1 N19       0.132000
     43 H19          4.8960     3.3520    -2.3800 ha         1 N19       0.131500
     44 H20          7.1560     3.0170    -1.4250 ha         1 N19       0.132000
     45 H21          7.4260     1.6820     0.6420 ha         1 N19       0.131500
     46 H22          5.4550     0.6910     1.7400 ha         1 N19       0.132000
@<TRIPOS>BOND
     1     1     2 ar  
     2     1     6 ar  
     3     1    26 1   
     4     2     3 ar  
     5     2    27 1   
     6     3     4 ar  
     7     3    15 1   
     8     4     5 ar  
     9     4    28 1   
    10     5     6 ar  
    11     5    29 1   
    12     6     7 1   
    13     7     8 2   
    14     7     9 1   
    15     9    10 1   
    16     9    14 1   
    17    10    11 1   
    18    10    30 1   
    19    10    31 1   
    20    11    12 1   
    21    11    19 1   
    22    11    32 1   
    23    12    13 1   
    24    12    33 1   
    25    13    14 1   
    26    13    34 1   
    27    13    35 1   
    28    14    36 1   
    29    14    37 1   
    30    15    16 2   
    31    15    17 2   
    32    15    18 1   
    33    18    38 1   
    34    18    39 1   
    35    19    20 1   
    36    19    40 1   
    37    19    41 1   
    38    20    21 ar  
    39    20    25 ar  
    40    21    22 ar  
    41    21    42 1   
    42    22    23 ar  
    43    22    43 1   
    44    23    24 ar  
    45    23    44 1   
    46    24    25 ar  
    47    24    45 1   
    48    25    46 1   
@<TRIPOS>SUBSTRUCTURE
     1 N19         1 TEMP              0 ****  ****    0 ROOT
