@<TRIPOS>MOLECULE
N1A
   61    65     1     0     0
SMALL
No Charge or Current Charge


@<TRIPOS>ATOM
      1 C4          21.1540    38.2690    -4.8300 c3         1 N1A      -0.094400
      2 C5          22.3660    37.6590    -4.0930 c3         1 N1A       0.086600
      3 C6          23.4480    36.4540    -6.0910 cc         1 N1A      -0.049300
      4 N1          23.0540    35.2980    -4.1100 nc         1 N1A      -0.528800
      5 C7          23.8710    35.1490    -6.2330 cd         1 N1A      -0.314500
      6 C8          23.5950    34.5030    -5.0080 cd         1 N1A       0.289900
      7 N2          25.1300    33.1390    -9.7540 nb         1 N1A      -0.222000
      8 C9          24.3930    34.4710    -7.4360 ca         1 N1A       0.261500
      9 C10         25.2760    33.3670    -7.3670 ca         1 N1A      -0.006000
     10 C11         25.6310    32.7330    -8.5700 ca         1 N1A       0.124900
     11 C12         24.2670    34.1680    -9.7170 ca         1 N1A       0.388900
     12 N3          23.8720    34.8410    -8.6230 nb         1 N1A      -0.250000
     13 C13         22.8990    35.5180   -11.3940 ca         1 N1A       0.574900
     14 C14         21.9440    36.1970   -10.6150 ca         1 N1A      -0.152000
     15 C15         21.1070    37.1440   -11.2330 ca         1 N1A      -0.100000
     16 N4          23.7830    34.5730   -10.9500 nu         1 N1A      -0.896800
     17 N           22.9630    36.4990    -4.7800 na         1 N1A       0.123800
     18 C           24.5920    38.6540    -6.6630 c3         1 N1A      -0.084100
     19 C1          23.4920    37.6350    -7.0440 c3         1 N1A      -0.015400
     20 C16         21.2410    37.3730   -12.6170 ca         1 N1A       0.213000
     21 C17         22.2380    36.6140   -13.3010 ca         1 N1A       0.314900
     22 C18         20.8020    38.9210   -14.5900 c6         1 N1A       0.195300
     23 C19         20.0740    40.2720   -14.8900 c6         1 N1A       0.156300
     24 C2          22.0990    38.2820    -7.2720 c3         1 N1A      -0.070400
     25 C20         18.2310    39.6540   -13.4090 c6         1 N1A       0.156300
     26 C21         18.9190    38.2900   -13.0780 c6         1 N1A       0.195300
     27 C3          21.5050    39.0910    -6.0920 c3         1 N1A      -0.076400
     28 F           25.8030    32.9410    -6.1950 f          1 N1A      -0.168000
     29 N5          23.0480    35.6990   -12.7050 nb         1 N1A      -0.708000
     30 N6          20.4070    38.3320   -13.2680 nh         1 N1A      -0.781400
     31 N7          18.5880    40.1710   -14.7650 n3         1 N1A      -0.716600
     32 H1          20.6320    38.9330    -4.1290 hc         1 N1A       0.056700
     33 H2          20.4430    37.4740    -5.0880 hc         1 N1A       0.056700
     34 H3          22.0350    37.3330    -3.0990 h1         1 N1A       0.068700
     35 H4          23.1370    38.4220    -3.9410 h1         1 N1A       0.068700
     36 H5          23.7540    33.4620    -4.7520 h4         1 N1A       0.049100
     37 H6          26.3220    31.8920    -8.5870 h4         1 N1A       0.040100
     38 H7          21.8360    35.9960    -9.5570 ha         1 N1A       0.155000
     39 H8          20.3770    37.6920   -10.6450 ha         1 N1A       0.118000
     40 H9          24.2510    34.1380   -11.7380 hn         1 N1A       0.526000
     41 H10         25.5730    38.1640    -6.6480 hc         1 N1A       0.039700
     42 H11         24.6330    39.4700    -7.3950 hc         1 N1A       0.039700
     43 H12         24.4200    39.0910    -5.6740 hc         1 N1A       0.039700
     44 H13         23.7940    37.2710    -8.0290 hc         1 N1A       0.093700
     45 H14         22.3880    36.7360   -14.3730 h4         1 N1A       0.020100
     46 H16         21.8860    39.1050   -14.6160 h1         1 N1A       0.045450
     47 H17         20.3490    40.5980   -15.9040 h1         1 N1A       0.041200
     48 H18         20.4580    41.0330   -14.1950 h1         1 N1A       0.041200
     49 H19         22.1700    38.9520    -8.1370 hc         1 N1A       0.048200
     50 H20         21.3870    37.4980    -7.5570 hc         1 N1A       0.048200
     51 H21         18.5230    40.3840   -12.6390 h1         1 N1A       0.041200
     52 H22         17.1420    39.5230   -13.3260 h1         1 N1A       0.041200
     53 H23         18.6610    38.0200   -12.0450 h1         1 N1A       0.045450
     54 H24         18.4890    37.5150   -13.7300 h1         1 N1A       0.045450
     55 H25         16.8100    41.3130   -15.0350 h1         1 N1A       0.033033
     56 H26         18.1930    42.2350   -14.3960 h1         1 N1A       0.033033
     57 H27         18.1500    41.7620   -16.1110 h1         1 N1A       0.033033
     58 H28         22.1820    39.9090    -5.8200 hc         1 N1A       0.042700
     59 H29         20.5840    39.5720    -6.4460 hc         1 N1A       0.042700
     60 H15         20.5700    38.2100   -15.3970 h1         1 N1A       0.045450
     61 C22         17.9000    41.4380   -15.0920 c3         1 N1A       0.151100
@<TRIPOS>BOND
     1     1     2 1   
     2     1    27 1   
     3     1    32 1   
     4     1    33 1   
     5     2    17 1   
     6     2    34 1   
     7     2    35 1   
     8     3     5 2   
     9     3    17 1   
    10     3    19 1   
    11     4     6 2   
    12     4    17 1   
    13     5     6 1   
    14     5     8 1   
    15     6    36 1   
    16     7    10 ar  
    17     7    11 ar  
    18     8     9 ar  
    19     8    12 ar  
    20     9    10 ar  
    21     9    28 1   
    22    10    37 1   
    23    11    12 ar  
    24    11    16 1   
    25    13    14 ar  
    26    13    16 1   
    27    13    29 ar  
    28    14    15 ar  
    29    14    38 1   
    30    15    20 ar  
    31    15    39 1   
    32    16    40 1   
    33    18    19 1   
    34    18    41 1   
    35    18    42 1   
    36    18    43 1   
    37    19    24 1   
    38    19    44 1   
    39    20    21 ar  
    40    20    30 1   
    41    21    29 ar  
    42    21    45 1   
    43    22    23 1   
    44    22    30 1   
    45    22    46 1   
    46    22    60 1   
    47    23    31 1   
    48    23    47 1   
    49    23    48 1   
    50    24    27 1   
    51    24    49 1   
    52    24    50 1   
    53    25    26 1   
    54    25    31 1   
    55    25    51 1   
    56    25    52 1   
    57    26    30 1   
    58    26    53 1   
    59    26    54 1   
    60    27    58 1   
    61    27    59 1   
    62    31    61 1   
    63    55    61 1   
    64    56    61 1   
    65    57    61 1   
@<TRIPOS>SUBSTRUCTURE
     1 N1A         1 TEMP              0 ****  ****    0 ROOT
