@<TRIPOS>MOLECULE
N1A
   61    65     1     0     0
SMALL
abcg2


@<TRIPOS>ATOM
      1 C4          21.0270    38.2480    -4.9910 c3         1 N1A      -0.094400
      2 C5          22.2470    37.7020    -4.2590 c3         1 N1A       0.086600
      3 C6          23.2820    36.4180    -6.1850 cc         1 N1A      -0.049300
      4 N1          23.0070    35.4020    -4.1890 nc         1 N1A      -0.528800
      5 C7          23.7590    35.1040    -6.3000 cd         1 N1A      -0.314500
      6 C8          23.5680    34.5380    -5.0170 cd         1 N1A       0.289900
      7 N2          25.2630    33.2210    -9.7710 nb         1 N1A      -0.222000
      8 C9          24.2930    34.4420    -7.4800 ca         1 N1A       0.261500
      9 C10         25.2130    33.3950    -7.4110 ca         1 N1A      -0.006000
     10 C11         25.6750    32.8160    -8.5750 ca         1 N1A       0.124900
     11 C12         24.3710    34.2310    -9.7740 ca         1 N1A       0.388900
     12 N3          23.8820    34.8410    -8.6950 nb         1 N1A      -0.250000
     13 C13         23.0610    35.5980   -11.4410 ca         1 N1A       0.574900
     14 C14         22.1780    36.2870   -10.6020 ca         1 N1A      -0.152000
     15 C15         21.3380    37.2310   -11.1540 ca         1 N1A      -0.100000
     16 N4          23.9680    34.6230   -11.0230 nu         1 N1A      -0.896800
     17 N           22.8510    36.5430    -4.9110 na         1 N1A       0.123800
     18 C           24.3890    38.5750    -6.8400 c3         1 N1A      -0.084100
     19 C1          23.3010    37.5430    -7.1760 c3         1 N1A      -0.015400
     20 C16         21.3550    37.4930   -12.5340 ca         1 N1A       0.213000
     21 C17         22.2470    36.7160   -13.2840 ca         1 N1A       0.314900
     22 C18         20.6910    38.7430   -14.5280 c6         1 N1A       0.195300
     23 C19         20.0240    40.0540   -14.9080 c6         1 N1A       0.156300
     24 C2          21.9150    38.1740    -7.4140 c3         1 N1A      -0.070400
     25 C20         18.5190    39.8680   -13.0710 c6         1 N1A       0.156300
     26 C21         19.1580    38.5530   -12.6630 c6         1 N1A       0.195300
     27 C3          21.3360    39.0160    -6.2760 c3         1 N1A      -0.076400
     28 F           25.6820    32.9480    -6.2220 f          1 N1A      -0.168000
     29 N5          23.0780    35.8130   -12.7560 nb         1 N1A      -0.708000
     30 N6          20.5570    38.4960   -13.0970 nh         1 N1A      -0.781400
     31 N7          18.6220    40.0710   -14.5110 n3         1 N1A      -0.716600
     32 H1          20.5160    38.9180    -4.2960 hc         1 N1A       0.056700
     33 H2          20.3400    37.4220    -5.2000 hc         1 N1A       0.056700
     34 H3          21.9700    37.3550    -3.2670 h1         1 N1A       0.068700
     35 H4          23.0030    38.4810    -4.1390 h1         1 N1A       0.068700
     36 H5          23.7880    33.5350    -4.6880 h4         1 N1A       0.049100
     37 H6          26.4000    32.0100    -8.5300 h4         1 N1A       0.040100
     38 H7          22.1640    36.0870    -9.5460 ha         1 N1A       0.155000
     39 H8          20.6770    37.7810   -10.4990 ha         1 N1A       0.118000
     40 H9          24.4420    34.1540   -11.7810 hn         1 N1A       0.526000
     41 H10         25.3680    38.0950    -6.8110 hc         1 N1A       0.039700
     42 H11         24.4090    39.3490    -7.6110 hc         1 N1A       0.039700
     43 H12         24.2270    39.0650    -5.8810 hc         1 N1A       0.039700
     44 H13         23.5870    37.0810    -8.1180 hc         1 N1A       0.093700
     45 H14         22.3060    36.8230   -14.3590 h4         1 N1A       0.020100
     46 H16         21.7480    38.8090   -14.7820 h1         1 N1A       0.045450
     47 H17         20.0870    40.1830   -15.9910 h1         1 N1A       0.041200
     48 H18         20.5760    40.8880   -14.4390 h1         1 N1A       0.041200
     49 H19         22.0010    38.8040    -8.3030 hc         1 N1A       0.048200
     50 H20         21.2090    37.3760    -7.6650 hc         1 N1A       0.048200
     51 H21         19.0040    40.6930   -12.5200 h1         1 N1A       0.041200
     52 H22         17.4650    39.8550   -12.7890 h1         1 N1A       0.041200
     53 H23         19.1020    38.4600   -11.5820 h1         1 N1A       0.045450
     54 H24         18.5930    37.7190   -13.1050 h1         1 N1A       0.045450
     55 H25         16.9120    41.2690   -14.6390 h1         1 N1A       0.033033
     56 H26         18.4180    42.1950   -14.4650 h1         1 N1A       0.033033
     57 H27         18.0280    41.4050   -16.0090 h1         1 N1A       0.033033
     58 H28         22.0140    39.8420    -6.0430 hc         1 N1A       0.042700
     59 H29         20.4110    39.4740    -6.6340 hc         1 N1A       0.042700
     60 H15         20.2520    37.9220   -15.1160 h1         1 N1A       0.045450
     61 C22         17.9640    41.3000   -14.9250 c3         1 N1A       0.151100
@<TRIPOS>BOND
     1     1     2 1   
     2     1    27 1   
     3     1    32 1   
     4     1    33 1   
     5     2    17 1   
     6     2    34 1   
     7     2    35 1   
     8     3     5 2   
     9     3    17 1   
    10     3    19 1   
    11     4     6 2   
    12     4    17 1   
    13     5     6 1   
    14     5     8 1   
    15     6    36 1   
    16     7    10 ar  
    17     7    11 ar  
    18     8     9 ar  
    19     8    12 ar  
    20     9    10 ar  
    21     9    28 1   
    22    10    37 1   
    23    11    12 ar  
    24    11    16 1   
    25    13    14 ar  
    26    13    16 1   
    27    13    29 ar  
    28    14    15 ar  
    29    14    38 1   
    30    15    20 ar  
    31    15    39 1   
    32    16    40 1   
    33    18    19 1   
    34    18    41 1   
    35    18    42 1   
    36    18    43 1   
    37    19    24 1   
    38    19    44 1   
    39    20    21 ar  
    40    20    30 1   
    41    21    29 ar  
    42    21    45 1   
    43    22    23 1   
    44    22    30 1   
    45    22    46 1   
    46    22    60 1   
    47    23    31 1   
    48    23    47 1   
    49    23    48 1   
    50    24    27 1   
    51    24    49 1   
    52    24    50 1   
    53    25    26 1   
    54    25    31 1   
    55    25    51 1   
    56    25    52 1   
    57    26    30 1   
    58    26    53 1   
    59    26    54 1   
    60    27    58 1   
    61    27    59 1   
    62    31    61 1   
    63    55    61 1   
    64    56    61 1   
    65    57    61 1   
@<TRIPOS>SUBSTRUCTURE
     1 N1A         1 TEMP              0 ****  ****    0 ROOT
