@<TRIPOS>MOLECULE
N1D
   58    61     1     0     0
SMALL
bcc


@<TRIPOS>ATOM
      1 C01         -4.3960     5.3970     0.2720 c3         1 N1D       0.120700
      2 O05         -5.0120     4.2480    -0.2750 os         1 N1D      -0.294900
      3 C06         -4.4230     3.0580    -0.0700 ca         1 N1D       0.119100
      4 C07         -3.2310     2.8640     0.6070 ca         1 N1D      -0.188000
      5 C09         -2.7090     1.5840     0.7760 ca         1 N1D      -0.118000
      6 C11         -3.3730     0.4810     0.2650 ca         1 N1D      -0.037800
      7 C12         -4.5730     0.6740    -0.4320 ca         1 N1D      -0.183000
      8 C14         -5.1030     1.9410    -0.6010 ca         1 N1D       0.115100
      9 O15         -6.2430     2.2160    -1.2570 os         1 N1D      -0.295900
     10 C16         -6.9480     1.1440    -1.8510 c3         1 N1D       0.121700
     11 C20         -2.8510    -0.8820     0.4690 cc         1 N1D      -0.092400
     12 C21         -3.6320    -1.8790     0.9650 cd         1 N1D       0.038600
     13 N23         -3.1970    -3.1500     1.1850 n          1 N1D      -0.344000
     14 C24         -4.1200    -4.1470     1.7140 c3         1 N1D       0.079300
     15 C28         -1.8990    -3.5650     0.9400 c          1 N1D       0.729100
     16 O29         -1.5500    -4.7160     1.1650 o          1 N1D      -0.617500
     17 C30         -1.0430    -2.5370     0.4000 cd         1 N1D      -0.227600
     18 C31          0.3030    -2.7090    -0.0090 cd         1 N1D      -0.015000
     19 C33          0.8450    -1.5700    -0.5160 cc         1 N1D      -0.168700
     20 S34         -0.3050    -0.2640    -0.5360 ss         1 N1D      -0.032800
     21 C35         -1.5150    -1.2550     0.1740 cc         1 N1D       0.064100
     22 C36          2.1880    -1.5070    -1.1430 c          1 N1D       0.712700
     23 O37          2.6000    -2.4940    -1.7350 o          1 N1D      -0.581100
     24 N38          2.8810    -0.3440    -1.0890 n          1 N1D      -0.473800
     25 C39          2.7870     0.6500    -0.0330 c6         1 N1D       0.095500
     26 C42          4.0000     0.5780     0.8850 c6         1 N1D       0.162800
     27 N45          5.2240     0.6970     0.0950 n3         1 N1D      -0.718500
     28 C46          5.3280    -0.3250    -0.9460 c6         1 N1D       0.162800
     29 C49          4.1120    -0.2130    -1.8480 c6         1 N1D       0.095500
     30 S52          6.6110     1.0950     0.9070 s6         1 N1D       1.224900
     31 C53          6.9930    -0.2800     1.9690 c3         1 N1D      -0.271300
     32 O57          7.6670     1.2050    -0.0880 o          1 N1D      -0.599300
     33 O58          6.3050     2.2470     1.7420 o          1 N1D      -0.599300
     34 H011        -5.0270     6.2420     0.0050 h1         1 N1D       0.041700
     35 H012        -4.3230     5.3410     1.3610 h1         1 N1D       0.041700
     36 H013        -3.3960     5.5600    -0.1400 h1         1 N1D       0.041700
     37 H07         -2.6920     3.7030     1.0280 ha         1 N1D       0.140000
     38 H09         -1.7960     1.4640     1.3450 ha         1 N1D       0.136000
     39 H12         -5.0740    -0.1890    -0.8500 ha         1 N1D       0.138000
     40 H161        -7.2890     0.4170    -1.1080 h1         1 N1D       0.041033
     41 H162        -7.8160     1.5790    -2.3400 h1         1 N1D       0.041033
     42 H163        -6.3440     0.6260    -2.6000 h1         1 N1D       0.041033
     43 H21         -4.6640    -1.6920     1.2290 h4         1 N1D       0.154000
     44 H241        -4.2170    -4.9810     1.0230 h1         1 N1D       0.055700
     45 H242        -3.7690    -4.5230     2.6730 h1         1 N1D       0.055700
     46 H243        -5.0940    -3.6890     1.8520 h1         1 N1D       0.055700
     47 H31          0.8430    -3.6420     0.0670 ha         1 N1D       0.183000
     48 H391         2.7200     1.6430    -0.4820 h1         1 N1D       0.072450
     49 H392         1.9030     0.5010     0.5820 h1         1 N1D       0.072450
     50 H491         4.1590    -0.9730    -2.6220 h1         1 N1D       0.072450
     51 H492         4.1100     0.7660    -2.3340 h1         1 N1D       0.072450
     52 H421         3.9360     1.3980     1.5980 h1         1 N1D       0.064450
     53 H422         3.9740    -0.3660     1.4450 h1         1 N1D       0.064450
     54 H461         6.2220    -0.1600    -1.5430 h1         1 N1D       0.064450
     55 H462         5.3810    -1.3330    -0.5160 h1         1 N1D       0.064450
     56 H531         7.0760    -1.1880     1.3750 h1         1 N1D       0.101700
     57 H532         7.9440    -0.0720     2.4560 h1         1 N1D       0.101700
     58 H533         6.2150    -0.3920     2.7210 h1         1 N1D       0.101700
@<TRIPOS>BOND
     1     1     2 1   
     2     1    34 1   
     3     1    35 1   
     4     1    36 1   
     5     2     3 1   
     6     3     4 ar  
     7     3     8 ar  
     8     4     5 ar  
     9     4    37 1   
    10     5     6 ar  
    11     5    38 1   
    12     6     7 ar  
    13     6    11 1   
    14     7     8 ar  
    15     7    39 1   
    16     8     9 1   
    17     9    10 1   
    18    10    40 1   
    19    10    41 1   
    20    10    42 1   
    21    11    12 2   
    22    11    21 1   
    23    12    13 1   
    24    12    43 1   
    25    13    14 1   
    26    13    15 1   
    27    14    44 1   
    28    14    45 1   
    29    14    46 1   
    30    15    16 2   
    31    15    17 1   
    32    17    18 1   
    33    17    21 2   
    34    18    19 2   
    35    18    47 1   
    36    19    20 1   
    37    19    22 1   
    38    20    21 1   
    39    22    23 2   
    40    22    24 1   
    41    24    25 1   
    42    24    29 1   
    43    25    26 1   
    44    25    48 1   
    45    25    49 1   
    46    26    27 1   
    47    26    52 1   
    48    26    53 1   
    49    27    28 1   
    50    27    30 1   
    51    28    29 1   
    52    28    54 1   
    53    28    55 1   
    54    29    50 1   
    55    29    51 1   
    56    30    31 1   
    57    30    32 2   
    58    30    33 2   
    59    31    56 1   
    60    31    57 1   
    61    31    58 1   
@<TRIPOS>SUBSTRUCTURE
     1 N1D         1 TEMP              0 ****  ****    0 ROOT
