@<TRIPOS>MOLECULE
N1D
   58    61     1     0     0
SMALL
No Charge or Current Charge


@<TRIPOS>ATOM
      1 C01         -4.0790     5.5140     0.2910 c3         1 N1D       0.143900
      2 O05         -4.8510     4.3630    -0.0950 os         1 N1D      -0.318100
      3 C06         -4.3550     3.0710    -0.0110 ca         1 N1D       0.119100
      4 C07         -3.0550     2.8030     0.4670 ca         1 N1D      -0.170000
      5 C09         -2.5840     1.4810     0.5370 ca         1 N1D      -0.100000
      6 C11         -3.3900     0.3970     0.1340 ca         1 N1D      -0.037800
      7 C12         -4.6960     0.6710    -0.3350 ca         1 N1D      -0.165000
      8 C14         -5.1810     1.9980    -0.4130 ca         1 N1D       0.115100
      9 O15         -6.4540     2.2840    -0.8820 os         1 N1D      -0.319100
     10 C16         -7.3720     1.2630    -1.3100 c3         1 N1D       0.144900
     11 C20         -2.8940    -0.9930     0.2100 cc         1 N1D      -0.092400
     12 C21         -3.8250    -1.9420     0.6070 cd         1 N1D      -0.011400
     13 N23         -3.4920    -3.2870     0.8070 n          1 N1D      -0.277000
     14 C24         -4.5360    -4.2580     1.2090 c3         1 N1D       0.079300
     15 C28         -2.1690    -3.7640     0.6510 c          1 N1D       0.586600
     16 O29         -1.8670    -4.9390     0.8250 o          1 N1D      -0.542000
     17 C30         -1.1750    -2.7370     0.2640 cd         1 N1D      -0.227600
     18 C31          0.2120    -2.9730     0.0390 cd         1 N1D       0.003000
     19 C33          0.9210    -1.8470    -0.3120 cc         1 N1D      -0.313600
     20 S34         -0.1550    -0.4580    -0.4720 ss         1 N1D       0.257000
     21 C35         -1.5260    -1.4250     0.0730 cc         1 N1D      -0.080800
     22 C36          2.3520    -1.8890    -0.6970 c          1 N1D       0.645700
     23 O37          2.9340    -2.9520    -0.8710 o          1 N1D      -0.581100
     24 N38          3.0250    -0.6630    -0.8940 n          1 N1D      -0.406800
     25 C39          2.8410     0.5310    -0.0140 c6         1 N1D       0.095500
     26 C42          4.1120     0.8520     0.8220 c6         1 N1D       0.162800
     27 N45          5.3370     0.9450    -0.0190 n3         1 N1D      -0.718500
     28 C46          5.5240    -0.2970    -0.8180 c6         1 N1D       0.162800
     29 C49          4.2810    -0.5910    -1.6930 c6         1 N1D       0.095500
     30 S52          6.7470     1.5200     0.7900 s6         1 N1D       1.194100
     31 C53          7.1460     0.2510     1.9830 c3         1 N1D      -0.382100
     32 O57          7.8100     1.5890    -0.2170 o          1 N1D      -0.528500
     33 O58          6.3550     2.7420     1.5000 o          1 N1D      -0.528500
     34 H011        -4.6630     6.4300     0.1400 h1         1 N1D       0.041700
     35 H012        -3.8000     5.4590     1.3510 h1         1 N1D       0.041700
     36 H013        -3.1650     5.5900    -0.3120 h1         1 N1D       0.041700
     37 H07         -2.3990     3.6020     0.7990 ha         1 N1D       0.122000
     38 H09         -1.5990     1.3100     0.9570 ha         1 N1D       0.118000
     39 H12         -5.3180    -0.1510    -0.6730 ha         1 N1D       0.120000
     40 H161        -7.5920     0.5670    -0.4910 h1         1 N1D       0.041033
     41 H162        -8.3180     1.7150    -1.6340 h1         1 N1D       0.041033
     42 H163        -6.9600     0.6970    -2.1550 h1         1 N1D       0.041033
     43 H21         -4.8660    -1.7230     0.8200 h4         1 N1D       0.204000
     44 H241        -4.5800    -5.0770     0.4800 h1         1 N1D       0.055700
     45 H242        -4.2950    -4.6700     2.1970 h1         1 N1D       0.055700
     46 H243        -5.5210    -3.7770     1.2570 h1         1 N1D       0.055700
     47 H31          0.6650    -3.9580     0.1330 ha         1 N1D       0.165000
     48 H391         2.5830     1.4000    -0.6340 h1         1 N1D       0.072450
     49 H392         2.0290     0.3730     0.7050 h1         1 N1D       0.072450
     50 H491         4.4410    -1.5240    -2.2520 h1         1 N1D       0.072450
     51 H492         4.1770     0.2110    -2.4370 h1         1 N1D       0.072450
     52 H421         3.9350     1.7950     1.3600 h1         1 N1D       0.064450
     53 H422         4.2320     0.0670     1.5830 h1         1 N1D       0.064450
     54 H461         6.3960    -0.2080    -1.4830 h1         1 N1D       0.064450
     55 H462         5.7040    -1.1600    -0.1600 h1         1 N1D       0.064450
     56 H531         7.3410    -0.6770     1.4370 h1         1 N1D       0.101700
     57 H532         8.0400     0.5830     2.5210 h1         1 N1D       0.101700
     58 H533         6.2960     0.1470     2.6630 h1         1 N1D       0.101700
@<TRIPOS>BOND
     1     1     2 1   
     2     1    34 1   
     3     1    35 1   
     4     1    36 1   
     5     2     3 1   
     6     3     4 ar  
     7     3     8 ar  
     8     4     5 ar  
     9     4    37 1   
    10     5     6 ar  
    11     5    38 1   
    12     6     7 ar  
    13     6    11 1   
    14     7     8 ar  
    15     7    39 1   
    16     8     9 1   
    17     9    10 1   
    18    10    40 1   
    19    10    41 1   
    20    10    42 1   
    21    11    12 2   
    22    11    21 1   
    23    12    13 1   
    24    12    43 1   
    25    13    14 1   
    26    13    15 1   
    27    14    44 1   
    28    14    45 1   
    29    14    46 1   
    30    15    16 2   
    31    15    17 1   
    32    17    18 1   
    33    17    21 2   
    34    18    19 2   
    35    18    47 1   
    36    19    20 1   
    37    19    22 1   
    38    20    21 1   
    39    22    23 2   
    40    22    24 1   
    41    24    25 1   
    42    24    29 1   
    43    25    26 1   
    44    25    48 1   
    45    25    49 1   
    46    26    27 1   
    47    26    52 1   
    48    26    53 1   
    49    27    28 1   
    50    27    30 1   
    51    28    29 1   
    52    28    54 1   
    53    28    55 1   
    54    29    50 1   
    55    29    51 1   
    56    30    31 1   
    57    30    32 2   
    58    30    33 2   
    59    31    56 1   
    60    31    57 1   
    61    31    58 1   
@<TRIPOS>SUBSTRUCTURE
     1 N1D         1 TEMP              0 ****  ****    0 ROOT
