@<TRIPOS>MOLECULE
N1E
   23    24     1     0     0
SMALL
No Charge or Current Charge


@<TRIPOS>ATOM
      1 N1         -12.8390    -7.6790    89.6620 nb         1 N1E      -0.664000
      2 C4         -12.8860   -11.1810    90.7860 ca         1 N1E      -0.060000
      3 C5         -12.6610    -9.7940    90.7550 ca         1 N1E      -0.098000
      4 C6         -13.0710    -9.0140    89.6610 ca         1 N1E       0.289000
      5 C7         -13.2440    -6.9500    88.5960 ca         1 N1E       0.364900
      6 C8         -13.8940    -7.5150    87.4890 ca         1 N1E      -0.172000
      7 C10        -13.7220    -9.6590    88.5800 ca         1 N1E      -0.104000
      8 C1         -13.5300   -15.3720    90.9530 c3         1 N1E       0.152900
      9 O1         -13.3360   -13.9490    90.8460 os         1 N1E      -0.438100
     10 O2         -14.3500   -13.8980    88.7960 o          1 N1E      -0.490000
     11 C3         -13.5350   -11.8250    89.7080 ca         1 N1E      -0.141600
     12 C9         -14.1400    -8.8960    87.4750 ca         1 N1E      -0.048000
     13 C11        -13.9500   -11.0490    88.6060 ca         1 N1E      -0.026000
     14 H1         -12.5520   -11.7460    91.6530 ha         1 N1E       0.134000
     15 H2         -12.1600    -9.3150    91.5920 ha         1 N1E       0.136000
     16 H3         -13.0400    -5.8800    88.6330 h4         1 N1E       0.021100
     17 H4         -14.1990    -6.8860    86.6580 ha         1 N1E       0.127000
     18 H5         -13.1210   -15.7420    91.9020 h1         1 N1E       0.050033
     19 H6         -14.5970   -15.6260    90.9210 h1         1 N1E       0.050033
     20 H7         -13.0210   -15.8990    90.1350 h1         1 N1E       0.050033
     21 H8         -14.6430    -9.3590    86.6270 ha         1 N1E       0.124000
     22 H9         -14.4520   -11.5240    87.7650 ha         1 N1E       0.138000
     23 C2         -13.7900   -13.3160    89.7160 c          1 N1E       0.606700
@<TRIPOS>BOND
     1     1     4 ar  
     2     1     5 ar  
     3     2     3 ar  
     4     2    11 ar  
     5     2    14 1   
     6     3     4 ar  
     7     3    15 1   
     8     4     7 ar  
     9     5     6 ar  
    10     5    16 1   
    11     6    12 ar  
    12     6    17 1   
    13     7    12 ar  
    14     7    13 ar  
    15     8     9 1   
    16     8    18 1   
    17     8    19 1   
    18     8    20 1   
    19     9    23 1   
    20    10    23 2   
    21    11    13 ar  
    22    11    23 1   
    23    12    21 1   
    24    13    22 1   
@<TRIPOS>SUBSTRUCTURE
     1 N1E         1 TEMP              0 ****  ****    0 ROOT
