@<TRIPOS>MOLECULE
N1E
   23    24     1     0     0
SMALL
bcc


@<TRIPOS>ATOM
      1 N1         -12.8470    -7.7210    89.6630 nb         1 N1E      -0.664000
      2 C4         -12.8890   -11.1750    90.7940 ca         1 N1E      -0.078000
      3 C5         -12.6710    -9.8270    90.7640 ca         1 N1E      -0.181300
      4 C6         -13.0840    -9.0530    89.6560 ca         1 N1E       0.419600
      5 C7         -13.2360    -7.0210    88.6300 ca         1 N1E       0.430200
      6 C8         -13.8890    -7.5670    87.5040 ca         1 N1E      -0.255300
      7 C10        -13.7310    -9.7010    88.5750 ca         1 N1E      -0.169300
      8 C1         -13.5310   -15.2950    90.9060 c3         1 N1E       0.129700
      9 O1         -13.3360   -13.8840    90.7960 os         1 N1E      -0.414900
     10 O2         -14.3630   -13.8660    88.8150 o          1 N1E      -0.539000
     11 C3         -13.5370   -11.8230    89.7140 ca         1 N1E      -0.141600
     12 C9         -14.1340    -8.9090    87.4770 ca         1 N1E      -0.066000
     13 C11        -13.9480   -11.0910    88.6280 ca         1 N1E      -0.044000
     14 H1         -12.5610   -11.7420    91.6540 ha         1 N1E       0.152000
     15 H2         -12.1790    -9.3280    91.5890 ha         1 N1E       0.154000
     16 H3         -13.0350    -5.9560    88.6610 h4         1 N1E       0.021100
     17 H4         -14.1810    -6.9210    86.6880 ha         1 N1E       0.145000
     18 H5         -13.0790   -15.5830    91.8510 h1         1 N1E       0.050033
     19 H6         -14.5900   -15.5490    90.9180 h1         1 N1E       0.050033
     20 H7         -13.0410   -15.8280    90.0920 h1         1 N1E       0.050033
     21 H8         -14.6300    -9.3730    86.6330 ha         1 N1E       0.142000
     22 H9         -14.4440   -11.5750    87.7960 ha         1 N1E       0.156000
     23 C2         -13.7960   -13.2870    89.7100 c          1 N1E       0.655700
@<TRIPOS>BOND
     1     1     4 ar  
     2     1     5 ar  
     3     2     3 ar  
     4     2    11 ar  
     5     2    14 1   
     6     3     4 ar  
     7     3    15 1   
     8     4     7 ar  
     9     5     6 ar  
    10     5    16 1   
    11     6    12 ar  
    12     6    17 1   
    13     7    12 ar  
    14     7    13 ar  
    15     8     9 1   
    16     8    18 1   
    17     8    19 1   
    18     8    20 1   
    19     9    23 1   
    20    10    23 2   
    21    11    13 ar  
    22    11    23 1   
    23    12    21 1   
    24    13    22 1   
@<TRIPOS>SUBSTRUCTURE
     1 N1E         1 TEMP              0 ****  ****    0 ROOT
