@<TRIPOS>MOLECULE
N1F
   46    48     1     0     0
SMALL
No Charge or Current Charge


@<TRIPOS>ATOM
      1 C15        -26.4240    24.7240   -27.5790 ca         1 N1F      -0.177000
      2 C17        -26.3280    26.0990   -29.5600 ca         1 N1F       0.320000
      3 C21        -24.6450    24.2630   -25.1160 c6         1 N1F       0.202800
      4 C22        -24.8630    24.0660   -23.5900 c6         1 N1F       0.085000
      5 C24        -26.0540    23.2950   -19.3520 ca         1 N1F      -0.065000
      6 C01        -30.3140    18.8720   -19.0020 c3         1 N1F      -0.182100
      7 C02        -29.0440    19.3040   -19.7300 c          1 N1F       0.609100
      8 C04        -27.3860    21.2710   -19.6800 ca         1 N1F      -0.013000
      9 C05        -26.4760    20.8590   -20.6770 ca         1 N1F      -0.149500
     10 C06        -25.3690    21.6600   -21.0080 ca         1 N1F      -0.065000
     11 C07        -25.1530    22.8870   -20.3520 ca         1 N1F      -0.099300
     12 C08        -23.9530    23.7640   -20.7120 c3         1 N1F      -0.102100
     13 C11        -24.8570    26.5610   -23.3170 c6         1 N1F       0.085000
     14 C12        -24.6370    26.7080   -24.8470 c6         1 N1F       0.202800
     15 C14        -25.6110    25.6870   -26.9470 ca         1 N1F       0.573900
     16 C16        -26.7920    24.9330   -28.9240 ca         1 N1F      -0.069000
     17 C25        -27.1600    22.4940   -19.0220 ca         1 N1F      -0.149500
     18 N10        -24.4740    25.2360   -22.7350 n          1 N1F      -0.423800
     19 N13        -25.2050    25.5530   -25.5980 nh         1 N1F      -0.781300
     20 N19        -25.5550    27.0010   -28.9100 nb         1 N1F      -0.260000
     21 N20        -25.2040    26.7960   -27.6180 nb         1 N1F      -0.402000
     22 O23        -24.6630    26.0560   -20.6010 o          1 N1F      -0.579100
     23 O26        -28.5550    18.6160   -20.6180 o          1 N1F      -0.581100
     24 Cl18       -26.7380    26.4440   -31.2350 cl         1 N1F      -0.154000
     25 H1         -26.7740    23.8490   -27.0400 ha         1 N1F       0.129000
     26 H2         -25.0920    23.4060   -25.6400 h1         1 N1F       0.062200
     27 H3         -23.5650    24.2310   -25.3210 h1         1 N1F       0.062200
     28 H4         -25.9280    23.8540   -23.4160 h1         1 N1F       0.063450
     29 H5         -24.3060    23.1690   -23.2980 h1         1 N1F       0.063450
     30 H6         -25.8990    24.2360   -18.8280 ha         1 N1F       0.111000
     31 H7         -30.7050    17.9140   -19.3650 hc         1 N1F       0.063033
     32 H8         -30.1170    18.8470   -17.9250 hc         1 N1F       0.063033
     33 H9         -31.0610    19.6700   -19.0830 hc         1 N1F       0.063033
     34 H10        -26.6050    19.9220   -21.2090 ha         1 N1F       0.128500
     35 H11        -24.6790    21.3200   -21.7770 ha         1 N1F       0.111000
     36 H12        -23.3100    23.2280   -21.4170 hc         1 N1F       0.061200
     37 H13        -23.3820    23.9720   -19.8000 hc         1 N1F       0.061200
     38 H14        -24.2960    27.3600   -22.8120 h1         1 N1F       0.063450
     39 H15        -25.9220    26.7340   -23.1050 h1         1 N1F       0.063450
     40 H16        -23.5590    26.7910   -25.0460 h1         1 N1F       0.062200
     41 H17        -25.1030    27.6530   -25.1630 h1         1 N1F       0.062200
     42 H18        -27.4180    24.2230   -29.4580 ha         1 N1F       0.141000
     43 H19        -27.8460    22.8300   -18.2470 ha         1 N1F       0.128500
     44 H20        -29.0650    20.9460   -18.5500 hn         1 N1F       0.149000
     45 C09        -24.4030    25.1040   -21.3270 c          1 N1F       0.607100
     46 N03        -28.5270    20.5160   -19.2900 ns         1 N1F      -0.147000
@<TRIPOS>BOND
     1     1    15 ar  
     2     1    16 ar  
     3     1    25 1   
     4     2    16 ar  
     5     2    20 ar  
     6     2    24 1   
     7     3     4 1   
     8     3    19 1   
     9     3    26 1   
    10     3    27 1   
    11     4    18 1   
    12     4    28 1   
    13     4    29 1   
    14     5    11 ar  
    15     5    17 ar  
    16     5    30 1   
    17     6     7 1   
    18     6    31 1   
    19     6    32 1   
    20     6    33 1   
    21     7    23 2   
    22     7    46 1   
    23     8     9 ar  
    24     8    17 ar  
    25     8    46 1   
    26     9    10 ar  
    27     9    34 1   
    28    10    11 ar  
    29    10    35 1   
    30    11    12 1   
    31    12    36 1   
    32    12    37 1   
    33    12    45 1   
    34    13    14 1   
    35    13    18 1   
    36    13    38 1   
    37    13    39 1   
    38    14    19 1   
    39    14    40 1   
    40    14    41 1   
    41    15    19 1   
    42    15    21 ar  
    43    16    42 1   
    44    17    43 1   
    45    18    45 1   
    46    20    21 ar  
    47    22    45 2   
    48    44    46 1   
@<TRIPOS>SUBSTRUCTURE
     1 N1F         1 TEMP              0 ****  ****    0 ROOT
