@<TRIPOS>MOLECULE
N1F
   46    48     1     0     0
SMALL
bcc


@<TRIPOS>ATOM
      1 C15        -23.5640    25.9950   -28.0710 ca         1 N1F      -0.260300
      2 C17        -23.8410    28.0020   -29.2700 ca         1 N1F       0.385300
      3 C21        -24.3750    24.5970   -25.6120 c6         1 N1F       0.202800
      4 C22        -25.4420    23.6040   -25.1720 c6         1 N1F       0.085000
      5 C24        -25.7570    22.1920   -20.0920 ca         1 N1F      -0.083000
      6 C01        -28.9270    19.7010   -15.5560 c3         1 N1F      -0.182100
      7 C02        -28.8470    19.9230   -17.0460 c          1 N1F       0.676100
      8 C04        -27.3910    21.0330   -18.7380 ca         1 N1F       0.079600
      9 C05        -28.1160    20.7500   -19.8970 ca         1 N1F      -0.167500
     10 C06        -27.6500    21.1930   -21.1260 ca         1 N1F      -0.083000
     11 C07        -26.4730    21.9190   -21.2520 ca         1 N1F      -0.099300
     12 C08        -25.9970    22.3960   -22.5910 c3         1 N1F      -0.102100
     13 C11        -26.9480    25.4270   -24.7030 c6         1 N1F       0.085000
     14 C12        -25.8870    26.4240   -25.1310 c6         1 N1F       0.202800
     15 C14        -24.5280    26.5140   -27.1700 ca         1 N1F       0.639200
     16 C16        -23.2180    26.7570   -29.1460 ca         1 N1F      -0.152300
     17 C25        -26.2040    21.7600   -18.8570 ca         1 N1F      -0.167500
     18 N10        -26.3410    24.2060   -24.2110 n          1 N1F      -0.490800
     19 N13        -24.9820    25.8210   -26.0950 nh         1 N1F      -0.781300
     20 N19        -24.7070    28.4510   -28.4100 nb         1 N1F      -0.260000
     21 N20        -25.0470    27.7270   -27.3680 nb         1 N1F      -0.402000
     22 O23        -27.4210    24.2870   -22.2350 o          1 N1F      -0.579100
     23 O26        -29.7010    19.4960   -17.8030 o          1 N1F      -0.581100
     24 CL18       -23.4610    29.0270   -30.6090 cl         1 N1F      -0.154000
     25 H1         -23.1030    25.0290   -27.9390 ha         1 N1F       0.147000
     26 H2         -23.7820    24.1160   -26.3850 h1         1 N1F       0.062200
     27 H3         -23.7050    24.8140   -24.7720 h1         1 N1F       0.062200
     28 H4         -26.0130    23.2780   -26.0480 h1         1 N1F       0.063450
     29 H5         -24.9470    22.7300   -24.7600 h1         1 N1F       0.063450
     30 H6         -24.8300    22.7510   -20.1490 ha         1 N1F       0.129000
     31 H7         -29.0770    18.6400   -15.3580 hc         1 N1F       0.063033
     32 H8         -28.0490    20.0360   -15.0080 hc         1 N1F       0.063033
     33 H9         -29.7970    20.2300   -15.1630 hc         1 N1F       0.063033
     34 H10        -29.0350    20.1900   -19.8540 ha         1 N1F       0.146500
     35 H11        -28.2290    20.9560   -22.0120 ha         1 N1F       0.129000
     36 H12        -26.2090    21.6420   -23.3540 hc         1 N1F       0.061200
     37 H13        -24.9110    22.5200   -22.5800 hc         1 N1F       0.061200
     38 H14        -27.5660    25.8680   -23.9260 h1         1 N1F       0.063450
     39 H15        -27.5960    25.1910   -25.5540 h1         1 N1F       0.063450
     40 H16        -25.3220    26.7610   -24.2540 h1         1 N1F       0.062200
     41 H17        -26.3680    27.2920   -25.5710 h1         1 N1F       0.062200
     42 H18        -22.4910    26.4130   -29.8680 ha         1 N1F       0.159000
     43 H19        -25.6210    21.9880   -17.9710 ha         1 N1F       0.146500
     44 H20        -27.1310    20.9280   -16.7210 hn         1 N1F       0.315500
     45 C09        -26.6510    23.7150   -22.9890 c          1 N1F       0.674100
     46 N03        -27.7640    20.6360   -17.4500 ns         1 N1F      -0.473100
@<TRIPOS>BOND
     1     1    15 ar  
     2     1    16 ar  
     3     1    25 1   
     4     2    16 ar  
     5     2    20 ar  
     6     2    24 1   
     7     3     4 1   
     8     3    19 1   
     9     3    26 1   
    10     3    27 1   
    11     4    18 1   
    12     4    28 1   
    13     4    29 1   
    14     5    11 ar  
    15     5    17 ar  
    16     5    30 1   
    17     6     7 1   
    18     6    31 1   
    19     6    32 1   
    20     6    33 1   
    21     7    23 2   
    22     7    46 1   
    23     8     9 ar  
    24     8    17 ar  
    25     8    46 1   
    26     9    10 ar  
    27     9    34 1   
    28    10    11 ar  
    29    10    35 1   
    30    11    12 1   
    31    12    36 1   
    32    12    37 1   
    33    12    45 1   
    34    13    14 1   
    35    13    18 1   
    36    13    38 1   
    37    13    39 1   
    38    14    19 1   
    39    14    40 1   
    40    14    41 1   
    41    15    19 1   
    42    15    21 ar  
    43    16    42 1   
    44    17    43 1   
    45    18    45 1   
    46    20    21 ar  
    47    22    45 2   
    48    44    46 1   
@<TRIPOS>SUBSTRUCTURE
     1 N1F         1 TEMP              0 ****  ****    0 ROOT
