@<TRIPOS>MOLECULE
N1G
   38    41     1     0     0
SMALL
No Charge or Current Charge


@<TRIPOS>ATOM
      1 C02         -2.4250     0.8330     0.0140 c          1 N1G       0.557600
      2 C04         -4.6360    -0.2420     0.1210 cc         1 N1G       0.524400
      3 C09         -0.9770     0.4500    -0.0810 cc         1 N1G       0.180500
      4 C12          1.8150    -1.5560    -0.0330 ca         1 N1G      -0.009200
      5 C13          2.5120    -1.6510     1.1900 ca         1 N1G      -0.092000
      6 C14          3.4780    -2.6550     1.3770 ca         1 N1G      -0.102000
      7 C15          3.7450    -3.5750     0.3480 ca         1 N1G      -0.097000
      8 C16          3.0420    -3.4940    -0.8660 ca         1 N1G      -0.102000
      9 C17          2.0760    -2.4900    -1.0550 ca         1 N1G      -0.092000
     10 C18          1.2490     0.7870    -0.2190 cd         1 N1G      -0.088000
     11 C19          2.5970     1.4190    -0.2380 ca         1 N1G      -0.039000
     12 C20          3.7650     0.7320    -0.6500 ca         1 N1G      -0.086500
     13 C21          5.0170     1.3710    -0.6570 ca         1 N1G      -0.111500
     14 C22          5.1280     2.7120    -0.2630 ca         1 N1G      -0.095000
     15 C23          3.9810     3.4150     0.1310 ca         1 N1G      -0.111500
     16 C24          2.7290     2.7770     0.1370 ca         1 N1G      -0.086500
     17 C25          0.0440     1.4240    -0.1050 cc         1 N1G      -0.149000
     18 N03         -3.2720    -0.2480     0.0390 ns         1 N1G      -0.468400
     19 N05         -5.4700     0.8270     0.1950 na         1 N1G      -0.228700
     20 N06         -6.7620     0.4170     0.2620 nc         1 N1G      -0.201800
     21 N07         -6.6870    -0.8870     0.2280 nd         1 N1G      -0.032000
     22 N08         -5.3820    -1.3210     0.1400 nd         1 N1G      -0.435000
     23 N10         -0.5120    -0.7910    -0.1270 nd         1 N1G      -0.497800
     24 N11          0.8500    -0.5690    -0.2220 na         1 N1G       0.256000
     25 O01         -2.8390     1.9860     0.0660 o          1 N1G      -0.584100
     26 H1           2.3080    -0.9420     1.9900 ha         1 N1G       0.133500
     27 H2           4.0190    -2.7210     2.3190 ha         1 N1G       0.123500
     28 H3           4.4920    -4.3520     0.4930 ha         1 N1G       0.122000
     29 H4           3.2450    -4.2100    -1.6610 ha         1 N1G       0.123500
     30 H5           1.5320    -2.4330    -1.9960 ha         1 N1G       0.133500
     31 H6           3.7240    -0.2920    -1.0010 ha         1 N1G       0.121500
     32 H7           5.9020     0.8260    -0.9790 ha         1 N1G       0.119000
     33 H8           6.0980     3.2060    -0.2700 ha         1 N1G       0.118000
     34 H9           4.0600     4.4570     0.4330 ha         1 N1G       0.119000
     35 H10          1.8630     3.3480     0.4580 ha         1 N1G       0.121500
     36 H11         -0.1370     2.4920    -0.0620 ha         1 N1G       0.167000
     37 H12         -2.8130    -1.1480    -0.0080 hn         1 N1G       0.379500
     38 H13         -5.1920     1.8010     0.2000 hn         1 N1G       0.410000
@<TRIPOS>BOND
     1     1     3 1   
     2     1    18 1   
     3     1    25 2   
     4     2    18 1   
     5     2    19 1   
     6     2    22 2   
     7     3    17 1   
     8     3    23 2   
     9     4     5 ar  
    10     4     9 ar  
    11     4    24 1   
    12     5     6 ar  
    13     5    26 1   
    14     6     7 ar  
    15     6    27 1   
    16     7     8 ar  
    17     7    28 1   
    18     8     9 ar  
    19     8    29 1   
    20     9    30 1   
    21    10    11 1   
    22    10    17 2   
    23    10    24 1   
    24    11    12 ar  
    25    11    16 ar  
    26    12    13 ar  
    27    12    31 1   
    28    13    14 ar  
    29    13    32 1   
    30    14    15 ar  
    31    14    33 1   
    32    15    16 ar  
    33    15    34 1   
    34    16    35 1   
    35    17    36 1   
    36    18    37 1   
    37    19    20 1   
    38    19    38 1   
    39    20    21 2   
    40    21    22 1   
    41    23    24 1   
@<TRIPOS>SUBSTRUCTURE
     1 N1G         1 TEMP              0 ****  ****    0 ROOT
