@<TRIPOS>MOLECULE
N1G
   38    41     1     0     0
SMALL
bcc


@<TRIPOS>ATOM
      1 C02         -2.3970     0.8260    -0.0740 c          1 N1G       0.624600
      2 C04         -4.4550    -0.4390    -0.0310 cc         1 N1G       0.524400
      3 C09         -0.9390     0.6640    -0.0530 cc         1 N1G       0.245800
      4 C12          1.7960    -1.4290     0.1530 ca         1 N1G      -0.009200
      5 C13          2.7680    -1.4180     1.1440 ca         1 N1G      -0.110000
      6 C14          3.6250    -2.5020     1.2610 ca         1 N1G      -0.120000
      7 C15          3.5010    -3.5890     0.4060 ca         1 N1G      -0.115000
      8 C16          2.5160    -3.5920    -0.5730 ca         1 N1G      -0.120000
      9 C17          1.6610    -2.5080    -0.7080 ca         1 N1G      -0.110000
     10 C18          1.2310     1.0010    -0.0670 cd         1 N1G      -0.037300
     11 C19          2.5940     1.5310    -0.1510 ca         1 N1G      -0.039000
     12 C20          3.5470     0.9660    -0.9980 ca         1 N1G      -0.104500
     13 C21          4.8190     1.5100    -1.0790 ca         1 N1G      -0.129500
     14 C22          5.1540     2.6250    -0.3200 ca         1 N1G      -0.113000
     15 C23          4.2060     3.1980     0.5170 ca         1 N1G      -0.129500
     16 C24          2.9330     2.6530     0.6040 ca         1 N1G      -0.104500
     17 C25          0.0320     1.6740    -0.1060 cc         1 N1G      -0.232300
     18 N03         -3.0960    -0.3470    -0.0260 ns         1 N1G      -0.535400
     19 N05         -5.3330     0.5620    -0.0830 na         1 N1G      -0.178400
     20 N06         -6.5570     0.0410    -0.0690 nc         1 N1G      -0.201800
     21 N07         -6.4130    -1.2190    -0.0130 nd         1 N1G      -0.032000
     22 N08         -5.1250    -1.5660     0.0130 nd         1 N1G      -0.435000
     23 N10         -0.3870    -0.5340     0.0240 nd         1 N1G      -0.497800
     24 N11          0.9160    -0.3240     0.0180 na         1 N1G       0.205300
     25 O01         -2.9360     1.9140    -0.1300 o          1 N1G      -0.584100
     26 H1           2.8510    -0.5790     1.8220 ha         1 N1G       0.151500
     27 H2           4.3850    -2.4990     2.0310 ha         1 N1G       0.141500
     28 H3           4.1690    -4.4340     0.5050 ha         1 N1G       0.140000
     29 H4           2.4150    -4.4380    -1.2400 ha         1 N1G       0.141500
     30 H5           0.9010    -2.4990    -1.4770 ha         1 N1G       0.151500
     31 H6           3.2990     0.1070    -1.6080 ha         1 N1G       0.139500
     32 H7           5.5490     1.0640    -1.7410 ha         1 N1G       0.137000
     33 H8           6.1480     3.0460    -0.3840 ha         1 N1G       0.136000
     34 H9           4.4580     4.0680     1.1090 ha         1 N1G       0.137000
     35 H10          2.2040     3.0950     1.2710 ha         1 N1G       0.139500
     36 H11         -0.1150     2.7370    -0.1990 ha         1 N1G       0.185000
     37 H12         -2.5860    -1.2200     0.0230 hn         1 N1G       0.379500
     38 H13         -5.1750     1.5590    -0.1220 hn         1 N1G       0.359700
@<TRIPOS>BOND
     1     1     3 1   
     2     1    18 1   
     3     1    25 2   
     4     2    18 1   
     5     2    19 1   
     6     2    22 2   
     7     3    17 1   
     8     3    23 2   
     9     4     5 ar  
    10     4     9 ar  
    11     4    24 1   
    12     5     6 ar  
    13     5    26 1   
    14     6     7 ar  
    15     6    27 1   
    16     7     8 ar  
    17     7    28 1   
    18     8     9 ar  
    19     8    29 1   
    20     9    30 1   
    21    10    11 1   
    22    10    17 2   
    23    10    24 1   
    24    11    12 ar  
    25    11    16 ar  
    26    12    13 ar  
    27    12    31 1   
    28    13    14 ar  
    29    13    32 1   
    30    14    15 ar  
    31    14    33 1   
    32    15    16 ar  
    33    15    34 1   
    34    16    35 1   
    35    17    36 1   
    36    18    37 1   
    37    19    20 1   
    38    19    38 1   
    39    20    21 2   
    40    21    22 1   
    41    23    24 1   
@<TRIPOS>SUBSTRUCTURE
     1 N1G         1 TEMP              0 ****  ****    0 ROOT
