@<TRIPOS>MOLECULE
N1H
   45    48     1     0     0
SMALL
No Charge or Current Charge


@<TRIPOS>ATOM
      1 C1           6.4480     1.7500    -0.2500 ca         1 N1H       0.556900
      2 C2           6.8870     0.4160    -0.1140 ca         1 N1H      -0.212000
      3 C3           5.9240    -0.6120    -0.0410 ca         1 N1H      -0.043000
      4 C4           4.5880    -0.1950    -0.1100 ca         1 N1H      -0.143200
      5 C5           4.2880     1.1310    -0.2380 ca         1 N1H       0.385800
      6 N6           5.1730     2.1370    -0.3120 nb         1 N1H      -0.708000
      7 N7           7.2860     2.7930    -0.3220 nv         1 N1H      -1.048900
      8 N3           3.4340    -0.9620    -0.0700 na         1 N1H      -0.196700
      9 CN4          2.8710     1.2350    -0.2810 cc         1 N1H      -0.401800
     10 C8           2.3460    -0.0580    -0.1920 cd         1 N1H       0.038700
     11 C7           0.9230    -0.4840    -0.1510 ca         1 N1H      -0.159800
     12 C9           0.6170    -1.8290    -0.4620 ca         1 N1H      -0.051000
     13 C10         -0.7090    -2.2920    -0.4910 ca         1 N1H      -0.015300
     14 CV          -1.0110    -3.7440    -0.8540 c3         1 N1H      -0.192100
     15 CW          -0.9600    -4.6110     0.4120 c          1 N1H       0.724000
     16 OX           0.1230    -5.0630     0.7560 o          1 N1H      -0.723000
     17 OY          -1.9770    -4.7080     1.0830 o          1 N1H      -0.723000
     18 C11         -1.7540    -1.4060    -0.1860 ca         1 N1H      -0.044000
     19 C12         -1.4970    -0.0620     0.1670 cp         1 N1H      -0.105000
     20 C6          -0.1460     0.3870     0.1840 ca         1 N1H       0.155100
     21 O6           0.1350     1.6570     0.5820 oh         1 N1H      -0.552100
     22 C1B         -2.6470     0.8300     0.5180 cp         1 N1H       0.005000
     23 C2B         -2.6670     1.5720     1.7230 ca         1 N1H      -0.040000
     24 C3B         -3.7600     2.3900     2.0500 ca         1 N1H      -0.131000
     25 C4B         -4.8610     2.4810     1.1830 ca         1 N1H      -0.061000
     26 C5B         -4.8780     1.7450    -0.0240 ca         1 N1H      -0.183200
     27 N5B         -6.0500     1.8330    -0.9540 no         1 N1H       0.696200
     28 O51         -6.9960     2.5680    -0.6380 o          1 N1H      -0.412500
     29 O52         -6.0220     1.1670    -1.9980 o          1 N1H      -0.412500
     30 C6B         -3.7690     0.9230    -0.3420 ca         1 N1H      -0.046000
     31 H2           7.9470     0.1850    -0.0690 ha         1 N1H       0.112000
     32 H3           6.2020    -1.6590     0.0610 ha         1 N1H       0.117000
     33 HN71         8.2340     2.6640     0.0130 hn         1 N1H       0.451500
     34 HN72         6.8710     3.7080    -0.1930 hn         1 N1H       0.451500
     35 HN3          3.3720    -1.9680     0.0500 hn         1 N1H       0.367000
     36 HN4          2.3390     2.1580    -0.4780 ha         1 N1H       0.216000
     37 H1           1.4110    -2.5250    -0.7200 ha         1 N1H       0.114000
     38 H311        -2.0190    -3.7700    -1.2850 hc         1 N1H       0.038200
     39 H312        -0.2390    -4.0680    -1.5620 hc         1 N1H       0.038200
     40 H4          -2.7790    -1.7680    -0.1970 ha         1 N1H       0.122000
     41 H6           1.1080     1.6980     0.6930 ho         1 N1H       0.474000
     42 H2B         -1.8280     1.5040     2.4120 ha         1 N1H       0.132000
     43 H3B         -3.7550     2.9530     2.9810 ha         1 N1H       0.118000
     44 H4B         -5.6970     3.1210     1.4590 ha         1 N1H       0.139000
     45 H6B         -3.7590     0.3530    -1.2690 ha         1 N1H       0.154000
@<TRIPOS>BOND
     1     1     2 ar  
     2     1     6 ar  
     3     1     7 1   
     4     2     3 ar  
     5     2    31 1   
     6     3     4 ar  
     7     3    32 1   
     8     4     5 ar  
     9     4     8 1   
    10     5     6 ar  
    11     5     9 1   
    12     7    33 1   
    13     7    34 1   
    14     8    10 1   
    15     8    35 1   
    16     9    10 2   
    17     9    36 1   
    18    10    11 1   
    19    11    12 ar  
    20    11    20 ar  
    21    12    13 ar  
    22    12    37 1   
    23    13    14 1   
    24    13    18 ar  
    25    14    15 1   
    26    14    38 1   
    27    14    39 1   
    28    15    16 1   
    29    15    17 1   
    30    18    19 ar  
    31    18    40 1   
    32    19    20 ar  
    33    19    22 1   
    34    20    21 1   
    35    21    41 1   
    36    22    23 ar  
    37    22    30 ar  
    38    23    24 ar  
    39    23    42 1   
    40    24    25 ar  
    41    24    43 1   
    42    25    26 ar  
    43    25    44 1   
    44    26    27 1   
    45    26    30 ar  
    46    27    28 1   
    47    27    29 1   
    48    30    45 1   
@<TRIPOS>SUBSTRUCTURE
     1 N1H         1 TEMP              0 ****  ****    0 ROOT
