@<TRIPOS>MOLECULE
N1H
   45    48     1     0     0
SMALL
bcc


@<TRIPOS>ATOM
      1 C1           6.4090     1.7490    -0.3460 ca         1 N1H       0.622200
      2 C2           6.7540     0.5180     0.2740 ca         1 N1H      -0.295300
      3 C3           5.7800    -0.4120     0.5510 ca         1 N1H      -0.061000
      4 C4           4.4770    -0.0790     0.1930 ca         1 N1H      -0.208500
      5 C5           4.2180     1.1650    -0.4080 ca         1 N1H       0.451100
      6 N6           5.1720     2.0690    -0.6780 nb         1 N1H      -0.708000
      7 N7           7.4030     2.6430    -0.6660 nv         1 N1H      -0.938500
      8 N3           3.2880    -0.7430     0.3060 na         1 N1H      -0.146400
      9 CN4          2.8160     1.2260    -0.6430 cc         1 N1H      -0.351800
     10 C8           2.2830     0.0360    -0.1890 cd         1 N1H       0.038700
     11 C7           0.9020    -0.4450    -0.2010 ca         1 N1H      -0.159800
     12 C9           0.6210    -1.7590    -0.5780 ca         1 N1H      -0.069000
     13 C10         -0.6720    -2.2560    -0.6140 ca         1 N1H      -0.015300
     14 CV          -0.9520    -3.6710    -1.0050 c3         1 N1H      -0.192100
     15 CW          -0.9370    -4.6770     0.1740 c          1 N1H       0.934600
     16 OX          -1.1320    -5.8670    -0.1430 o          1 N1H      -0.828300
     17 OY          -0.7420    -4.2280     1.3160 o          1 N1H      -0.828300
     18 C11         -1.6990    -1.3920    -0.2520 ca         1 N1H      -0.062000
     19 C12         -1.4650    -0.0820     0.1510 cp         1 N1H      -0.105000
     20 C6          -0.1520     0.3990     0.1740 ca         1 N1H       0.155100
     21 O6           0.0390     1.6770     0.5520 oh         1 N1H      -0.513100
     22 C1B         -2.6030     0.7800     0.5370 cp         1 N1H       0.005000
     23 C2B         -2.6350     1.4500     1.7620 ca         1 N1H      -0.058000
     24 C3B         -3.7300     2.2170     2.1260 ca         1 N1H      -0.149000
     25 C4B         -4.8190     2.3400     1.2780 ca         1 N1H      -0.079000
     26 C5B         -4.7820     1.6700     0.0650 ca         1 N1H      -0.183200
     27 N5B         -5.9150     1.7850    -0.8420 no         1 N1H       0.316200
     28 O51         -6.8520     2.4660    -0.4980 o          1 N1H      -0.222500
     29 O52         -5.8640     1.1940    -1.8950 o          1 N1H      -0.222500
     30 C6B         -3.6950     0.8970    -0.3160 ca         1 N1H      -0.064000
     31 H2           7.7870     0.3160     0.5230 ha         1 N1H       0.130000
     32 H3           6.0270    -1.3550     1.0220 ha         1 N1H       0.135000
     33 HN71         8.2420     2.5970    -0.1110 hn         1 N1H       0.396300
     34 HN72         7.0900     3.5880    -0.8200 hn         1 N1H       0.396300
     35 HN3          3.1510    -1.6230     0.7770 hn         1 N1H       0.316700
     36 HN4          2.2850     2.0110    -1.1610 ha         1 N1H       0.166000
     37 H1           1.4430    -2.4020    -0.8740 ha         1 N1H       0.132000
     38 H311        -1.9300    -3.7370    -1.4920 hc         1 N1H       0.038200
     39 H312        -0.2280    -4.0070    -1.7530 hc         1 N1H       0.038200
     40 H4          -2.7220    -1.7530    -0.2670 ha         1 N1H       0.140000
     41 H6           0.9830     1.8580     0.6670 ho         1 N1H       0.435000
     42 H2B         -1.8050     1.3560     2.4490 ha         1 N1H       0.150000
     43 H3B         -3.7390     2.7240     3.0810 ha         1 N1H       0.136000
     44 H4B         -5.6690     2.9410     1.5670 ha         1 N1H       0.157000
     45 H6B         -3.6850     0.3910    -1.2710 ha         1 N1H       0.172000
@<TRIPOS>BOND
     1     1     2 ar  
     2     1     6 ar  
     3     1     7 1   
     4     2     3 ar  
     5     2    31 1   
     6     3     4 ar  
     7     3    32 1   
     8     4     5 ar  
     9     4     8 1   
    10     5     6 ar  
    11     5     9 1   
    12     7    33 1   
    13     7    34 1   
    14     8    10 1   
    15     8    35 1   
    16     9    10 2   
    17     9    36 1   
    18    10    11 1   
    19    11    12 ar  
    20    11    20 ar  
    21    12    13 ar  
    22    12    37 1   
    23    13    14 1   
    24    13    18 ar  
    25    14    15 1   
    26    14    38 1   
    27    14    39 1   
    28    15    16 1   
    29    15    17 1   
    30    18    19 ar  
    31    18    40 1   
    32    19    20 ar  
    33    19    22 1   
    34    20    21 1   
    35    21    41 1   
    36    22    23 ar  
    37    22    30 ar  
    38    23    24 ar  
    39    23    42 1   
    40    24    25 ar  
    41    24    43 1   
    42    25    26 ar  
    43    25    44 1   
    44    26    27 1   
    45    26    30 ar  
    46    27    28 1   
    47    27    29 1   
    48    30    45 1   
@<TRIPOS>SUBSTRUCTURE
     1 N1H         1 TEMP              0 ****  ****    0 ROOT
