@<TRIPOS>MOLECULE
N1I
   25    26     1     0     0
SMALL
No Charge or Current Charge


@<TRIPOS>ATOM
      1 C10          6.6480     6.8810    23.3420 ca         1 N1I       0.116000
      2 C11          7.4130     7.7710    16.6360 c3         1 N1I       0.115600
      3 C15          7.9780     6.4080    16.1630 c3         1 N1I      -0.238400
      4 C16          6.8340     5.5160    15.6810 c          1 N1I       0.722000
      5 C1           5.7850     7.5230    19.6950 cc         1 N1I       0.508500
      6 C2           5.6440     7.3290    21.1510 ca         1 N1I      -0.065500
      7 N3           6.9370     7.4690    19.0680 nd         1 N1I      -0.500800
      8 N4           4.6980     7.7780    18.9110 nc         1 N1I      -0.406000
      9 C5           4.3770     7.4030    21.7800 ca         1 N1I      -0.075000
     10 C6           6.7780     7.0650    21.9550 ca         1 N1I      -0.075000
     11 N7           6.5040     7.6980    17.7960 na         1 N1I       0.308600
     12 N8           5.1510     7.8960    17.6960 nd         1 N1I      -0.175800
     13 C9           4.2540     7.2170    23.1680 ca         1 N1I       0.116000
     14 C12          5.3870     6.9560    23.9510 ca         1 N1I      -0.108000
     15 Cl13         2.6710     7.3130    23.9270 cl         1 N1I      -0.212000
     16 Cl14         8.0730     6.5540    24.3200 cl         1 N1I      -0.212000
     17 O17          6.3170     4.7560    16.4840 o          1 N1I      -0.724500
     18 O18          6.4660     5.6360    14.5230 o          1 N1I      -0.724500
     19 H22          6.8790     8.2500    15.8050 h1         1 N1I       0.052700
     20 H21          8.2490     8.4270    16.9070 h1         1 N1I       0.052700
     21 H25          8.6470     6.6510    15.3300 hc         1 N1I       0.040700
     22 H24          8.4880     5.9630    17.0260 hc         1 N1I       0.040700
     23 H19          3.4790     7.6030    21.2010 ha         1 N1I       0.155500
     24 H20          7.7690     7.0010    21.5110 ha         1 N1I       0.155500
     25 H23          5.2890     6.8130    25.0230 ha         1 N1I       0.133000
@<TRIPOS>BOND
     1     1    10 ar  
     2     1    14 ar  
     3     1    16 1   
     4     2     3 1   
     5     2    11 1   
     6     2    19 1   
     7     2    20 1   
     8     3     4 1   
     9     3    21 1   
    10     3    22 1   
    11     4    17 1   
    12     4    18 1   
    13     5     6 1   
    14     5     7 2   
    15     5     8 1   
    16     6     9 ar  
    17     6    10 ar  
    18     7    11 1   
    19     8    12 2   
    20     9    13 ar  
    21     9    23 1   
    22    10    24 1   
    23    11    12 1   
    24    13    14 ar  
    25    13    15 1   
    26    14    25 1   
@<TRIPOS>SUBSTRUCTURE
     1 N1I         1 TEMP              0 ****  ****    0 ROOT
