@<TRIPOS>MOLECULE
N1I
   25    26     1     0     0
SMALL
abcg2


@<TRIPOS>ATOM
      1 C10          6.5440     6.5480    23.0500 ca         1 N1I       0.116000
      2 C11          7.2360     7.8500    16.5250 c3         1 N1I       0.115600
      3 C15          8.0410     6.5710    16.4380 c3         1 N1I      -0.238400
      4 C16          7.1970     5.2800    16.3890 c          1 N1I       0.722000
      5 C1           5.6690     7.6700    19.6020 cc         1 N1I       0.508500
      6 C2           5.5690     7.3700    21.0270 ca         1 N1I      -0.065500
      7 N3           6.7530     7.4710    18.8750 nd         1 N1I      -0.500800
      8 N4           4.6750     8.1790    18.8610 nc         1 N1I      -0.406000
      9 C5           4.3800     7.6220    21.7050 ca         1 N1I      -0.075000
     10 C6           6.6600     6.8280    21.7010 ca         1 N1I      -0.075000
     11 N7           6.3700     7.8670    17.6940 na         1 N1I       0.308600
     12 N8           5.1430     8.2930    17.6600 nd         1 N1I      -0.175800
     13 C9           4.3010     7.3260    23.0540 ca         1 N1I       0.116000
     14 C12          5.3720     6.7890    23.7500 ca         1 N1I      -0.108000
     15 CL13         2.8240     7.6290    23.8990 cl         1 N1I      -0.212000
     16 CL14         7.8960     5.8740    23.8900 cl         1 N1I      -0.212000
     17 O17          7.8290     4.2190    16.5420 o          1 N1I      -0.724500
     18 O18          5.9740     5.4140    16.1880 o          1 N1I      -0.724500
     19 H22          6.5820     7.9730    15.6660 h1         1 N1I       0.052700
     20 H21          7.8870     8.7230    16.5840 h1         1 N1I       0.052700
     21 H25          8.6410     6.6340    15.5250 hc         1 N1I       0.040700
     22 H24          8.7620     6.5150    17.2560 hc         1 N1I       0.040700
     23 H19          3.5300     8.0410    21.1850 ha         1 N1I       0.155500
     24 H20          7.5860     6.6280    21.1790 ha         1 N1I       0.155500
     25 H23          5.2960     6.5640    24.8050 ha         1 N1I       0.133000
@<TRIPOS>BOND
     1     1    10 ar  
     2     1    14 ar  
     3     1    16 1   
     4     2     3 1   
     5     2    11 1   
     6     2    19 1   
     7     2    20 1   
     8     3     4 1   
     9     3    21 1   
    10     3    22 1   
    11     4    17 1   
    12     4    18 1   
    13     5     6 1   
    14     5     7 2   
    15     5     8 1   
    16     6     9 ar  
    17     6    10 ar  
    18     7    11 1   
    19     8    12 2   
    20     9    13 ar  
    21     9    23 1   
    22    10    24 1   
    23    11    12 1   
    24    13    14 ar  
    25    13    15 1   
    26    14    25 1   
@<TRIPOS>SUBSTRUCTURE
     1 N1I         1 TEMP              0 ****  ****    0 ROOT
