@<TRIPOS>MOLECULE
N1L
   23    23     1     0     0
SMALL
No Charge or Current Charge


@<TRIPOS>ATOM
      1 C1          15.9240    20.2480    42.1340 c6         1 N1L       0.397300
      2 C2          15.8750    19.4330    43.4830 c6         1 N1L       0.131500
      3 C3          17.0270    18.3790    43.4630 c6         1 N1L       0.125300
      4 C4          16.9410    17.4930    42.1800 c6         1 N1L       0.134300
      5 C5          16.9240    18.3950    40.9090 c6         1 N1L      -0.003700
      6 C6          16.8620    17.5190    39.6080 c          1 N1L       0.732000
      7 N2          15.9430    20.2660    44.7380 n8         1 N1L      -0.981200
      8 O3          17.0030    17.5430    44.6340 oh         1 N1L      -0.682000
      9 O4          18.0300    16.5450    42.1610 oh         1 N1L      -0.796000
     10 O5          15.8270    19.3580    41.0160 os         1 N1L      -0.448000
     11 O6B         15.7740    17.4360    39.0500 o          1 N1L      -0.700500
     12 O6A         17.8840    17.5180    38.9320 o          1 N1L      -0.700500
     13 O1          14.8180    21.1220    41.9950 oh         1 N1L      -0.634000
     14 H1          16.8610    20.8220    42.0650 h2         1 N1L      -0.006300
     15 H2          14.9210    18.8820    43.5050 h1         1 N1L       0.091700
     16 HO1         14.5390    20.9810    41.0670 ho         1 N1L       0.445000
     17 H3          17.9820    18.9240    43.4310 h1         1 N1L       0.018700
     18 H21N        16.1890    19.6220    45.5000 hn         1 N1L       0.386500
     19 H22N        16.7610    20.8820    44.6800 hn         1 N1L       0.386500
     20 H4          15.9860    16.9460    42.2090 h1         1 N1L       0.047700
     21 HO3         17.4470    16.7100    44.3500 ho         1 N1L       0.456000
     22 H5          17.8640    18.9660    40.8680 h1         1 N1L       0.021700
     23 HO4         18.8530    17.0390    41.9210 ho         1 N1L       0.580000
@<TRIPOS>BOND
     1     1     2 1   
     2     1    10 1   
     3     1    13 1   
     4     1    14 1   
     5     2     3 1   
     6     2     7 1   
     7     2    15 1   
     8     3     4 1   
     9     3     8 1   
    10     3    17 1   
    11     4     5 1   
    12     4     9 1   
    13     4    20 1   
    14     5     6 1   
    15     5    10 1   
    16     5    22 1   
    17     6    11 1   
    18     6    12 1   
    19     7    18 1   
    20     7    19 1   
    21     8    21 1   
    22     9    23 1   
    23    13    16 1   
@<TRIPOS>SUBSTRUCTURE
     1 N1L         1 TEMP              0 ****  ****    0 ROOT
