@<TRIPOS>MOLECULE
N1L
   23    23     1     0     0
SMALL
abcg2


@<TRIPOS>ATOM
      1 C1          15.7890    20.1080    42.1500 c6         1 N1L       0.397300
      2 C2          15.8670    19.3400    43.4700 c6         1 N1L       0.131500
      3 C3          17.0700    18.3950    43.4230 c6         1 N1L       0.125300
      4 C4          17.0570    17.5350    42.1680 c6         1 N1L       0.134300
      5 C5          16.9310    18.4480    40.9410 c6         1 N1L      -0.003700
      6 C6          16.9210    17.6440    39.6250 c          1 N1L       0.732000
      7 N2          15.8930    20.2680    44.5860 n8         1 N1L      -0.981200
      8 O3          17.0530    17.6170    44.5990 oh         1 N1L      -0.682000
      9 O4          18.2310    16.7680    42.1250 oh         1 N1L      -0.796000
     10 O5          15.7640    19.2240    41.0550 os         1 N1L      -0.448000
     11 O6B         16.1110    17.9440    38.7460 o          1 N1L      -0.700500
     12 O6A         17.7950    16.7360    39.5730 o          1 N1L      -0.700500
     13 O1          14.6280    20.8520    42.1230 oh         1 N1L      -0.634000
     14 H1          16.6860    20.7520    42.0650 h2         1 N1L      -0.006300
     15 H2          14.9560    18.7330    43.5520 h1         1 N1L       0.091700
     16 HO1         14.6830    21.4890    41.4030 ho         1 N1L       0.445000
     17 H3          17.9820    19.0170    43.3850 h1         1 N1L       0.018700
     18 H21N        15.9190    19.7450    45.4520 hn         1 N1L       0.386500
     19 H22N        16.7560    20.8000    44.5630 hn         1 N1L       0.386500
     20 H4          16.1580    16.8930    42.2020 h1         1 N1L       0.047700
     21 HO3         17.8520    17.0810    44.6110 ho         1 N1L       0.456000
     22 H5          17.8240    19.1010    40.9140 h1         1 N1L       0.021700
     23 HO4         18.3100    16.5380    41.1680 ho         1 N1L       0.580000
@<TRIPOS>BOND
     1     1     2 1   
     2     1    10 1   
     3     1    13 1   
     4     1    14 1   
     5     2     3 1   
     6     2     7 1   
     7     2    15 1   
     8     3     4 1   
     9     3     8 1   
    10     3    17 1   
    11     4     5 1   
    12     4     9 1   
    13     4    20 1   
    14     5     6 1   
    15     5    10 1   
    16     5    22 1   
    17     6    11 1   
    18     6    12 1   
    19     7    18 1   
    20     7    19 1   
    21     8    21 1   
    22     9    23 1   
    23    13    16 1   
@<TRIPOS>SUBSTRUCTURE
     1 N1L         1 TEMP              0 ****  ****    0 ROOT
