@<TRIPOS>MOLECULE
N1M
   19    19     1     0     0
SMALL
No Charge or Current Charge


@<TRIPOS>ATOM
      1 I           -1.8470     0.1980    -0.3090 i          1 N1M      -0.289000
      2 N            2.7380     1.4700    -0.1460 ns         1 N1M      -0.502900
      3 O            0.6870     1.8050     0.7450 o          1 N1M      -0.574100
      4 C1          -0.0420    -1.0040    -0.0490 ca         1 N1M       0.235000
      5 C2           1.2570    -0.4600     0.1370 ca         1 N1M      -0.120600
      6 C3           2.3550    -1.3550     0.2230 ca         1 N1M      -0.095000
      7 C4           2.1650    -2.7440     0.1330 ca         1 N1M      -0.101000
      8 C5           0.8790    -3.2670    -0.0480 ca         1 N1M      -0.098000
      9 C6          -0.2170    -2.3970    -0.1410 ca         1 N1M      -0.088000
     10 C7           1.4960     1.0280     0.2590 c          1 N1M       0.605700
     11 C8           3.1870     2.8630    -0.0720 c3         1 N1M       0.094300
     12 HN           3.3610     0.7800    -0.5490 hn         1 N1M       0.319500
     13 H3           3.3650    -0.9870     0.3880 ha         1 N1M       0.119000
     14 H4           3.0190    -3.4150     0.2080 ha         1 N1M       0.120000
     15 H5           0.7300    -4.3430    -0.1200 ha         1 N1M       0.120000
     16 H6          -1.2140    -2.8010    -0.2930 ha         1 N1M       0.130000
     17 H8           3.1780     3.1990     0.9730 h1         1 N1M       0.042033
     18 H8A          4.2080     2.9410    -0.4680 h1         1 N1M       0.042033
     19 H8B          2.5190     3.4990    -0.6660 h1         1 N1M       0.042033
@<TRIPOS>BOND
     1     1     4 1   
     2     2    10 1   
     3     2    11 1   
     4     2    12 1   
     5     3    10 2   
     6     4     5 ar  
     7     4     9 ar  
     8     5     6 ar  
     9     5    10 1   
    10     6     7 ar  
    11     6    13 1   
    12     7     8 ar  
    13     7    14 1   
    14     8     9 ar  
    15     8    15 1   
    16     9    16 1   
    17    11    17 1   
    18    11    18 1   
    19    11    19 1   
@<TRIPOS>SUBSTRUCTURE
     1 N1M         1 TEMP              0 ****  ****    0 ROOT
