@<TRIPOS>MOLECULE
N1M
   19    19     1     0     0
SMALL
bcc


@<TRIPOS>ATOM
      1 I           -1.5150     0.3430    -0.5920 i          1 N1M      -0.151900
      2 N            2.6190     1.4660    -0.2840 ns         1 N1M      -0.569900
      3 O            0.9760     1.6210     1.2530 o          1 N1M      -0.574100
      4 C1           0.0780    -0.9660    -0.1560 ca         1 N1M       0.097900
      5 C2           1.3340    -0.4880     0.2090 ca         1 N1M      -0.120600
      6 C3           2.3560    -1.4080     0.4340 ca         1 N1M      -0.113000
      7 C4           2.1320    -2.7700     0.3100 ca         1 N1M      -0.119000
      8 C5           0.8760    -3.2280    -0.0560 ca         1 N1M      -0.116000
      9 C6          -0.1530    -2.3270    -0.2980 ca         1 N1M      -0.106000
     10 C7           1.6130     0.9680     0.4410 c          1 N1M       0.672700
     11 C8           3.0590     2.8360    -0.1570 c3         1 N1M       0.094300
     12 HN           3.0610     0.8820    -0.9750 hn         1 N1M       0.319500
     13 H3           3.3360    -1.0510     0.7270 ha         1 N1M       0.137000
     14 H4           2.9350    -3.4690     0.5000 ha         1 N1M       0.138000
     15 H5           0.6870    -4.2890    -0.1580 ha         1 N1M       0.138000
     16 H6          -1.1240    -2.6950    -0.5980 ha         1 N1M       0.148000
     17 H8           3.3830     3.0580     0.8600 h1         1 N1M       0.042033
     18 H8A          3.9000     2.9900    -0.8270 h1         1 N1M       0.042033
     19 H8B          2.2700     3.5380    -0.4270 h1         1 N1M       0.042033
@<TRIPOS>BOND
     1     1     4 1   
     2     2    10 1   
     3     2    11 1   
     4     2    12 1   
     5     3    10 2   
     6     4     5 ar  
     7     4     9 ar  
     8     5     6 ar  
     9     5    10 1   
    10     6     7 ar  
    11     6    13 1   
    12     7     8 ar  
    13     7    14 1   
    14     8     9 ar  
    15     8    15 1   
    16     9    16 1   
    17    11    17 1   
    18    11    18 1   
    19    11    19 1   
@<TRIPOS>SUBSTRUCTURE
     1 N1M         1 TEMP              0 ****  ****    0 ROOT
