@<TRIPOS>MOLECULE
N1N
   45    48     1     0     0
SMALL
No Charge or Current Charge


@<TRIPOS>ATOM
      1 Cl1          5.5940     6.5480    -2.5300 cl         1 N1N      -0.138000
      2 C9           7.2680     6.6400    -2.0470 cc         1 N1N       0.092000
      3 C10          8.0750     7.7560    -2.3570 cc         1 N1N       0.029000
      4 Cl           7.5250     9.1510    -3.2370 cl         1 N1N      -0.160000
      5 C11          9.3320     7.5580    -1.8600 cd         1 N1N      -0.127300
      6 C12         10.5430     8.4530    -1.9300 c3         1 N1N      -0.029800
      7 N2           9.3090     6.3050    -1.2330 na         1 N1N      -0.053000
      8 C8           8.0300     5.7280    -1.3440 cd         1 N1N      -0.219600
      9 C7           7.6460     4.3990    -0.7930 c          1 N1N       0.640700
     10 O            8.4510     3.7070    -0.1890 o          1 N1N      -0.597100
     11 N1           6.3460     4.0260    -1.0140 ns         1 N1N      -0.376400
     12 C6           5.6940     2.8750    -0.6380 cc         1 N1N       0.388800
     13 N            4.4110     2.7740    -0.9910 nd         1 N1N      -0.563100
     14 S            6.4180     1.5210     0.2720 ss         1 N1N       0.060800
     15 C4           4.8390     0.7660     0.1550 ca         1 N1N      -0.180000
     16 C5           4.5020    -0.4900     0.6810 ca         1 N1N      -0.085000
     17 C            3.1850    -0.9820     0.5190 ca         1 N1N      -0.090600
     18 C13          2.7920    -2.3400     1.0880 c          1 N1N       0.713600
     19 O2           3.6530    -3.0200     1.6300 o          1 N1N      -0.713000
     20 O1           1.6280    -2.7030     0.9890 o          1 N1N      -0.713000
     21 C3           3.9280     1.5480    -0.5250 ca         1 N1N       0.055400
     22 C2           2.6050     1.0820    -0.7120 ca         1 N1N       0.144100
     23 C1           2.2430    -0.1810    -0.1810 ca         1 N1N      -0.157000
     24 O3           1.7050     1.8860    -1.3970 os         1 N1N      -0.332100
     25 C14          0.4140     1.4240    -1.8430 c3         1 N1N       0.208900
     26 C15          0.5850     0.3500    -2.9190 ca         1 N1N      -0.118300
     27 C20          1.4540     0.5640    -4.0090 ca         1 N1N      -0.083500
     28 C19          1.6090    -0.4220    -4.9990 ca         1 N1N      -0.115500
     29 C18          0.8940    -1.6280    -4.9080 ca         1 N1N      -0.111000
     30 C17          0.0230    -1.8460    -3.8280 ca         1 N1N      -0.115500
     31 C16         -0.1330    -0.8600    -2.8380 ca         1 N1N      -0.083500
     32 H1          10.3450     9.4170    -1.4460 hc         1 N1N       0.054367
     33 H2          11.4100     8.0010    -1.4330 hc         1 N1N       0.054367
     34 H3          10.8210     8.6530    -2.9710 hc         1 N1N       0.054367
     35 H4          10.1000     5.8720    -0.7630 hn         1 N1N       0.375000
     36 H5           5.7970     4.6970    -1.5260 hn         1 N1N       0.345500
     37 H6           5.2530    -1.0730     1.2110 ha         1 N1N       0.144000
     38 H8           1.2320    -0.5540    -0.3000 ha         1 N1N       0.143000
     39 H9          -0.1480     2.2610    -2.2760 h1         1 N1N       0.052700
     40 H10         -0.1770     1.0400    -1.0010 h1         1 N1N       0.052700
     41 H11          2.0120     1.4950    -4.0880 ha         1 N1N       0.120000
     42 H12          2.2830    -0.2510    -5.8350 ha         1 N1N       0.105500
     43 H13          1.0140    -2.3910    -5.6740 ha         1 N1N       0.101000
     44 H14         -0.5330    -2.7780    -3.7580 ha         1 N1N       0.105500
     45 H15         -0.8120    -1.0400    -2.0070 ha         1 N1N       0.120000
@<TRIPOS>BOND
     1     1     2 1   
     2     2     3 1   
     3     2     8 2   
     4     3     4 1   
     5     3     5 2   
     6     5     6 1   
     7     5     7 1   
     8     6    32 1   
     9     6    33 1   
    10     6    34 1   
    11     7     8 1   
    12     7    35 1   
    13     8     9 1   
    14     9    10 2   
    15     9    11 1   
    16    11    12 1   
    17    11    36 1   
    18    12    13 2   
    19    12    14 1   
    20    13    21 1   
    21    14    15 1   
    22    15    16 ar  
    23    15    21 ar  
    24    16    17 ar  
    25    16    37 1   
    26    17    18 1   
    27    17    23 ar  
    28    18    19 1   
    29    18    20 1   
    30    21    22 ar  
    31    22    23 ar  
    32    22    24 1   
    33    23    38 1   
    34    24    25 1   
    35    25    26 1   
    36    25    39 1   
    37    25    40 1   
    38    26    27 ar  
    39    26    31 ar  
    40    27    28 ar  
    41    27    41 1   
    42    28    29 ar  
    43    28    42 1   
    44    29    30 ar  
    45    29    43 1   
    46    30    31 ar  
    47    30    44 1   
    48    31    45 1   
@<TRIPOS>SUBSTRUCTURE
     1 N1N         1 TEMP              0 ****  ****    0 ROOT
