@<TRIPOS>MOLECULE
N1N
   45    48     1     0     0
SMALL
abcg2


@<TRIPOS>ATOM
      1 CL1          5.6740     7.2040    -2.6730 cl         1 N1N      -0.138000
      2 C9           7.2760     7.0150    -2.1200 cc         1 N1N       0.092000
      3 C10          8.2850     7.9730    -2.2880 cc         1 N1N       0.029000
      4 CL           8.1050     9.4850    -3.0590 cl         1 N1N      -0.160000
      5 C11          9.4440     7.4800    -1.7180 cd         1 N1N      -0.127300
      6 C12         10.7870     8.0960    -1.6010 c3         1 N1N      -0.029800
      7 N2           9.1380     6.2670    -1.2230 na         1 N1N      -0.053000
      8 C8           7.8300     5.9420    -1.4440 cd         1 N1N      -0.219600
      9 C7           7.3490     4.6560    -0.9570 c          1 N1N       0.640700
     10 O            8.0810     3.9060    -0.3300 o          1 N1N      -0.597100
     11 N1           6.0560     4.3240    -1.2290 ns         1 N1N      -0.376400
     12 C6           5.4580     3.1500    -0.8480 cc         1 N1N       0.388800
     13 N            4.2360     2.8980    -1.1610 nd         1 N1N      -0.563100
     14 S            6.2970     1.9280     0.0780 ss         1 N1N       0.060800
     15 C4           4.8390     0.9790     0.0410 ca         1 N1N      -0.180000
     16 C5           4.6150    -0.2740     0.5970 ca         1 N1N      -0.085000
     17 C            3.3610    -0.8410     0.4340 ca         1 N1N      -0.090600
     18 C13          3.0580    -2.2220     1.0170 c          1 N1N       0.713600
     19 O2           3.9930    -2.7840     1.6170 o          1 N1N      -0.713000
     20 O1           1.9060    -2.6600     0.8370 o          1 N1N      -0.713000
     21 C3           3.8580     1.6740    -0.6700 ca         1 N1N       0.055400
     22 C2           2.5900     1.0930    -0.8290 ca         1 N1N       0.144100
     23 C1           2.3630    -0.1540    -0.2730 ca         1 N1N      -0.157000
     24 O3           1.6910     1.8260    -1.5160 os         1 N1N      -0.332100
     25 C14          0.4450     1.2430    -1.8460 c3         1 N1N       0.208900
     26 C15          0.5580     0.1510    -2.8780 ca         1 N1N      -0.118300
     27 C20          1.3720     0.3150    -3.9970 ca         1 N1N      -0.083500
     28 C19          1.4540    -0.6830    -4.9580 ca         1 N1N      -0.115500
     29 C18          0.7180    -1.8530    -4.8160 ca         1 N1N      -0.111000
     30 C17         -0.0970    -2.0210    -3.7060 ca         1 N1N      -0.115500
     31 C16         -0.1710    -1.0240    -2.7410 ca         1 N1N      -0.083500
     32 H1          10.8970     8.6210    -0.6510 hc         1 N1N       0.054367
     33 H2          11.5730     7.3440    -1.6600 hc         1 N1N       0.054367
     34 H3          10.9480     8.8180    -2.4000 hc         1 N1N       0.054367
     35 H4           9.7910     5.6580    -0.7490 hn         1 N1N       0.375000
     36 H5           5.4600     4.9530    -1.7520 hn         1 N1N       0.345500
     37 H6           5.3890    -0.7980     1.1400 ha         1 N1N       0.144000
     38 H8           1.4020    -0.6380    -0.3690 ha         1 N1N       0.143000
     39 H9          -0.1510     2.0690    -2.2380 h1         1 N1N       0.052700
     40 H10         -0.0710     0.8740    -0.9530 h1         1 N1N       0.052700
     41 H11          1.9490     1.2230    -4.1210 ha         1 N1N       0.120000
     42 H12          2.0930    -0.5450    -5.8210 ha         1 N1N       0.105500
     43 H13          0.7840    -2.6300    -5.5660 ha         1 N1N       0.101000
     44 H14         -0.6690    -2.9320    -3.5840 ha         1 N1N       0.105500
     45 H15         -0.7990    -1.1680    -1.8690 ha         1 N1N       0.120000
@<TRIPOS>BOND
     1     1     2 1   
     2     2     3 1   
     3     2     8 2   
     4     3     4 1   
     5     3     5 2   
     6     5     6 1   
     7     5     7 1   
     8     6    32 1   
     9     6    33 1   
    10     6    34 1   
    11     7     8 1   
    12     7    35 1   
    13     8     9 1   
    14     9    10 2   
    15     9    11 1   
    16    11    12 1   
    17    11    36 1   
    18    12    13 2   
    19    12    14 1   
    20    13    21 1   
    21    14    15 1   
    22    15    16 ar  
    23    15    21 ar  
    24    16    17 ar  
    25    16    37 1   
    26    17    18 1   
    27    17    23 ar  
    28    18    19 1   
    29    18    20 1   
    30    21    22 ar  
    31    22    23 ar  
    32    22    24 1   
    33    23    38 1   
    34    24    25 1   
    35    25    26 1   
    36    25    39 1   
    37    25    40 1   
    38    26    27 ar  
    39    26    31 ar  
    40    27    28 ar  
    41    27    41 1   
    42    28    29 ar  
    43    28    42 1   
    44    29    30 ar  
    45    29    43 1   
    46    30    31 ar  
    47    30    44 1   
    48    31    45 1   
@<TRIPOS>SUBSTRUCTURE
     1 N1N         1 TEMP              0 ****  ****    0 ROOT
