@<TRIPOS>MOLECULE
N1P
   13    12     1     0     0
SMALL
No Charge or Current Charge


@<TRIPOS>ATOM
      1 C1           2.8000    -0.1580     0.0490 c3         1 N1P      -0.093100
      2 C2           1.3620     0.2690     0.4060 c3         1 N1P      -0.083400
      3 C3           0.2940    -0.4440    -0.4580 c3         1 N1P      -0.047400
      4 N1          -1.1250    -0.0090    -0.0920 no         1 N1P       0.582000
      5 O1          -1.7100    -0.6460     0.7920 o          1 N1P      -0.400000
      6 O2          -1.5960     0.9700    -0.6820 o          1 N1P      -0.400000
      7 H1           3.5240     0.3690     0.6820 hc         1 N1P       0.041700
      8 H2           2.9330    -1.2360     0.1990 hc         1 N1P       0.041700
      9 H3           3.0260     0.0770    -0.9980 hc         1 N1P       0.041700
     10 H4           1.1770     0.0540     1.4660 hc         1 N1P       0.068200
     11 H5           1.2690     1.3550     0.2790 hc         1 N1P       0.068200
     12 H6           0.4230    -0.2090    -1.5220 h1         1 N1P       0.091700
     13 H7           0.3290    -1.5300    -0.3160 h1         1 N1P       0.091700
@<TRIPOS>BOND
     1     1     2 1   
     2     1     7 1   
     3     1     8 1   
     4     1     9 1   
     5     2     3 1   
     6     2    10 1   
     7     2    11 1   
     8     3     4 1   
     9     3    12 1   
    10     3    13 1   
    11     4     5 1   
    12     4     6 1   
@<TRIPOS>SUBSTRUCTURE
     1 N1P         1 TEMP              0 ****  ****    0 ROOT
