@<TRIPOS>MOLECULE
N1P
   13    12     1     0     0
SMALL
abcg2


@<TRIPOS>ATOM
      1 C1           2.7530    -0.1490     0.0070 c3         1 N1P      -0.093100
      2 C2           1.3670     0.4100     0.3020 c3         1 N1P      -0.083400
      3 C3           0.3150    -0.4970    -0.2950 c3         1 N1P      -0.047400
      4 N1          -1.0920    -0.0600    -0.0490 no         1 N1P       0.582000
      5 O1          -1.9640    -0.8530    -0.3120 o          1 N1P      -0.400000
      6 O2          -1.2920     1.0520     0.3720 o          1 N1P      -0.400000
      7 H1           3.5230     0.4960     0.4260 hc         1 N1P       0.041700
      8 H2           2.8840    -1.1420     0.4390 hc         1 N1P       0.041700
      9 H3           2.9310    -0.2270    -1.0660 hc         1 N1P       0.041700
     10 H4           1.2210     0.4870     1.3810 hc         1 N1P       0.068200
     11 H5           1.2780     1.4150    -0.1110 hc         1 N1P       0.068200
     12 H6           0.4020    -0.5550    -1.3820 h1         1 N1P       0.091700
     13 H7           0.3780    -1.5140     0.0920 h1         1 N1P       0.091700
@<TRIPOS>BOND
     1     1     2 1   
     2     1     7 1   
     3     1     8 1   
     4     1     9 1   
     5     2     3 1   
     6     2    10 1   
     7     2    11 1   
     8     3     4 1   
     9     3    12 1   
    10     3    13 1   
    11     4     5 1   
    12     4     6 1   
@<TRIPOS>SUBSTRUCTURE
     1 N1P         1 TEMP              0 ****  ****    0 ROOT
