@<TRIPOS>MOLECULE
N1Q
   57    60     1     0     0
SMALL
No Charge or Current Charge


@<TRIPOS>ATOM
      1 C1         -21.2650   -16.0100    -8.4250 c3         1 N1Q       0.156600
      2 C2         -19.8580   -16.6320    -8.2230 c3         1 N1Q       0.166800
      3 C3         -20.3570   -17.9130    -6.1430 c6         1 N1Q       0.171300
      4 C4         -19.9870   -18.0990    -4.6510 c6         1 N1Q      -0.072400
      5 C5         -18.5000   -18.5030    -4.4790 c6         1 N1Q      -0.084700
      6 C6         -18.1310   -18.6620    -2.9750 c3         1 N1Q       0.105000
      7 C7         -15.6630   -18.3760    -2.4690 c          1 N1Q       0.555800
      8 C8         -14.3830   -19.1670    -2.3530 cc         1 N1Q       0.298900
      9 C11        -10.3880   -18.1490    -1.5380 ca         1 N1Q      -0.047000
     10 C12        -11.2810   -17.0330    -1.5510 cp         1 N1Q      -0.079000
     11 C15        -10.7920   -15.6450    -1.2780 cp         1 N1Q      -0.044000
     12 C16        -11.5180   -14.7980    -0.4020 ca         1 N1Q      -0.092000
     13 C17        -11.0840   -13.4900    -0.1240 ca         1 N1Q      -0.099000
     14 C18         -9.9120   -12.9970    -0.7220 ca         1 N1Q      -0.127000
     15 C19         -9.1800   -13.8130    -1.5970 ca         1 N1Q       0.132000
     16 C21        -17.6050   -17.4730    -5.2200 c6         1 N1Q      -0.072400
     17 C20         -9.6110   -15.1250    -1.8770 ca         1 N1Q       0.138000
     18 F           -8.0580   -13.3260    -2.1750 f          1 N1Q      -0.162000
     19 C10        -10.8480   -19.4590    -1.7870 ca         1 N1Q      -0.133000
     20 C13        -12.6610   -17.2710    -1.8120 ca         1 N1Q      -0.002000
     21 C14        -13.0840   -18.5880    -2.0550 ca         1 N1Q      -0.190900
     22 C9         -12.2110   -19.6300    -2.0440 ca         1 N1Q      -0.045200
     23 N3         -12.9290   -20.7730    -2.3150 na         1 N1Q      -0.043400
     24 N2         -14.2900   -20.5080    -2.5130 nd         1 N1Q      -0.515100
     25 O1         -15.7630   -17.1610    -2.3230 o          1 N1Q      -0.603100
     26 N1         -16.7670   -19.1590    -2.7640 ns         1 N1Q      -0.491900
     27 C22        -18.0430   -17.3050    -6.6950 c6         1 N1Q       0.171300
     28 N          -19.4750   -16.9120    -6.8090 n3         1 N1Q      -0.725600
     29 O          -21.4250   -15.6900    -9.8210 os         1 N1Q      -0.460000
     30 C          -22.6910   -15.0960   -10.1530 c3         1 N1Q       0.149900
     31 H1         -21.3520   -15.1050    -7.8100 h1         1 N1Q       0.027700
     32 H2         -22.0370   -16.7220    -8.1060 h1         1 N1Q       0.027700
     33 H3         -19.8030   -17.5580    -8.8120 h1         1 N1Q       0.042700
     34 H4         -19.1310   -15.9340    -8.6590 h1         1 N1Q       0.042700
     35 H5         -21.4090   -17.6000    -6.1930 h1         1 N1Q       0.030700
     36 H6         -20.2840   -18.8850    -6.6550 h1         1 N1Q       0.030700
     37 H7         -20.1870   -17.1640    -4.1100 hc         1 N1Q       0.051700
     38 H8         -20.6400   -18.8630    -4.2060 hc         1 N1Q       0.051700
     39 H9         -18.3550   -19.4900    -4.9420 hc         1 N1Q       0.042700
     40 H10        -18.2580   -17.6970    -2.4660 h1         1 N1Q       0.058700
     41 H11        -18.8280   -19.3740    -2.5140 h1         1 N1Q       0.058700
     42 H12         -9.3340   -17.9940    -1.3210 ha         1 N1Q       0.123000
     43 H13        -12.4230   -15.1650     0.0770 ha         1 N1Q       0.128000
     44 H14        -11.6550   -12.8600     0.5550 ha         1 N1Q       0.124000
     45 H15         -9.5730   -11.9850    -0.5110 ha         1 N1Q       0.135000
     46 H16        -16.5540   -17.7900    -5.1940 hc         1 N1Q       0.051700
     47 H17        -17.6520   -16.5000    -4.7120 hc         1 N1Q       0.051700
     48 H18        -10.1640   -20.3050    -1.7760 ha         1 N1Q       0.124000
     49 H19        -13.3650   -16.4430    -1.8320 ha         1 N1Q       0.148000
     50 H20        -12.5540   -21.7190    -2.3750 hn         1 N1Q       0.381000
     51 H21        -16.5880   -20.1530    -2.8640 hn         1 N1Q       0.327500
     52 H22        -17.8650   -18.2490    -7.2310 h1         1 N1Q       0.030700
     53 H23        -17.4020   -16.5430    -7.1640 h1         1 N1Q       0.030700
     54 H25        -22.7400   -14.8800   -11.2280 h1         1 N1Q       0.027367
     55 H26        -23.5170   -15.7740    -9.9020 h1         1 N1Q       0.027367
     56 H27        -22.8350   -14.1540    -9.6080 h1         1 N1Q       0.027367
     57 F1          -8.8970   -15.8760    -2.7500 f          1 N1Q      -0.160000
@<TRIPOS>BOND
     1     1     2 1   
     2     1    29 1   
     3     1    31 1   
     4     1    32 1   
     5     2    28 1   
     6     2    33 1   
     7     2    34 1   
     8     3     4 1   
     9     3    28 1   
    10     3    35 1   
    11     3    36 1   
    12     4     5 1   
    13     4    37 1   
    14     4    38 1   
    15     5     6 1   
    16     5    16 1   
    17     5    39 1   
    18     6    26 1   
    19     6    40 1   
    20     6    41 1   
    21     7     8 1   
    22     7    25 2   
    23     7    26 1   
    24     8    21 1   
    25     8    24 2   
    26     9    10 ar  
    27     9    19 ar  
    28     9    42 1   
    29    10    11 1   
    30    10    20 ar  
    31    11    12 ar  
    32    11    17 ar  
    33    12    13 ar  
    34    12    43 1   
    35    13    14 ar  
    36    13    44 1   
    37    14    15 ar  
    38    14    45 1   
    39    15    17 ar  
    40    15    18 1   
    41    16    27 1   
    42    16    46 1   
    43    16    47 1   
    44    17    57 1   
    45    19    22 ar  
    46    19    48 1   
    47    20    21 ar  
    48    20    49 1   
    49    21    22 ar  
    50    22    23 1   
    51    23    24 1   
    52    23    50 1   
    53    26    51 1   
    54    27    28 1   
    55    27    52 1   
    56    27    53 1   
    57    29    30 1   
    58    30    54 1   
    59    30    55 1   
    60    30    56 1   
@<TRIPOS>SUBSTRUCTURE
     1 N1Q         1 TEMP              0 ****  ****    0 ROOT
