@<TRIPOS>MOLECULE
N1Q
   57    60     1     0     0
SMALL
bcc


@<TRIPOS>ATOM
      1 C1         -21.1790   -16.0790    -8.4160 c3         1 N1Q       0.133400
      2 C2         -20.0220   -17.0580    -8.2980 c3         1 N1Q       0.166800
      3 C3         -20.4180   -18.0230    -6.1230 c6         1 N1Q       0.171300
      4 C4         -19.9810   -18.0290    -4.6670 c6         1 N1Q      -0.072400
      5 C5         -18.5300   -18.4730    -4.5280 c6         1 N1Q      -0.084700
      6 C6         -18.0930   -18.4280    -3.0660 c3         1 N1Q       0.105000
      7 C7         -15.6850   -18.1640    -2.6090 c          1 N1Q       0.622800
      8 C8         -14.3980   -18.8870    -2.5030 cc         1 N1Q       0.298900
      9 C11        -10.4290   -18.0840    -1.6050 ca         1 N1Q      -0.065000
     10 C12        -11.2810   -16.9530    -1.5430 cp         1 N1Q      -0.079000
     11 C15        -10.7460   -15.6380    -1.1310 cp         1 N1Q      -0.044000
     12 C16        -11.3480   -14.9090    -0.1030 ca         1 N1Q      -0.110000
     13 C17        -10.8620   -13.6700     0.2790 ca         1 N1Q      -0.117000
     14 C18         -9.7550   -13.1230    -0.3550 ca         1 N1Q      -0.145000
     15 C19         -9.1580   -13.8350    -1.3730 ca         1 N1Q       0.096900
     16 C21        -17.6550   -17.6160    -5.4370 c6         1 N1Q      -0.072400
     17 C20         -9.6470   -15.0710    -1.7590 ca         1 N1Q       0.102900
     18 F           -8.0990   -13.3340    -2.0180 f          1 N1Q      -0.126900
     19 C10        -10.8960   -19.3330    -1.9310 ca         1 N1Q      -0.151000
     20 C13        -12.6270   -17.0780    -1.8230 ca         1 N1Q      -0.020000
     21 C14        -13.1280   -18.3400    -2.1630 ca         1 N1Q      -0.190900
     22 C9         -12.2610   -19.4430    -2.2110 ca         1 N1Q      -0.045200
     23 N3         -13.0280   -20.5070    -2.5540 na         1 N1Q       0.006900
     24 N2         -14.2970   -20.1780    -2.7260 nd         1 N1Q      -0.515100
     25 O1         -15.7170   -16.9480    -2.4630 o          1 N1Q      -0.603100
     26 N1         -16.7550   -18.9310    -2.8560 ns         1 N1Q      -0.558900
     27 C22        -18.1770   -17.6330    -6.8650 c6         1 N1Q       0.171300
     28 N          -19.5550   -17.1770    -6.9310 n3         1 N1Q      -0.725600
     29 O          -21.5460   -15.9880    -9.7700 os         1 N1Q      -0.413600
     30 C          -22.6230   -15.1140    -9.9820 c3         1 N1Q       0.126700
     31 H1         -20.8670   -15.1010    -8.0230 h1         1 N1Q       0.027700
     32 H2         -22.0370   -16.4060    -7.8110 h1         1 N1Q       0.027700
     33 H3         -20.3130   -18.0330    -8.7240 h1         1 N1Q       0.042700
     34 H4         -19.1980   -16.6830    -8.9100 h1         1 N1Q       0.042700
     35 H5         -21.4450   -17.6600    -6.1860 h1         1 N1Q       0.030700
     36 H6         -20.4270   -19.0590    -6.5060 h1         1 N1Q       0.030700
     37 H7         -20.1020   -17.0230    -4.2540 hc         1 N1Q       0.051700
     38 H8         -20.6420   -18.6890    -4.0990 hc         1 N1Q       0.051700
     39 H9         -18.4620   -19.5150    -4.8720 hc         1 N1Q       0.042700
     40 H10        -18.1420   -17.4050    -2.6930 h1         1 N1Q       0.058700
     41 H11        -18.7820   -19.0230    -2.4620 h1         1 N1Q       0.058700
     42 H12         -9.3810   -17.9710    -1.3590 ha         1 N1Q       0.141000
     43 H13        -12.2010   -15.3350     0.4100 ha         1 N1Q       0.146000
     44 H14        -11.3410   -13.1260     1.0810 ha         1 N1Q       0.142000
     45 H15         -9.3590   -12.1580    -0.0680 ha         1 N1Q       0.153000
     46 H16        -16.6230   -17.9750    -5.4350 hc         1 N1Q       0.051700
     47 H17        -17.6390   -16.5850    -5.0680 hc         1 N1Q       0.051700
     48 H18        -10.2350   -20.1890    -1.9600 ha         1 N1Q       0.142000
     49 H19        -13.2830   -16.2190    -1.7890 ha         1 N1Q       0.166000
     50 H20        -12.7390   -21.4640    -2.6820 hn         1 N1Q       0.330700
     51 H21        -16.6080   -19.9220    -2.9670 hn         1 N1Q       0.327500
     52 H22        -18.0660   -18.6540    -7.2740 h1         1 N1Q       0.030700
     53 H23        -17.5640   -16.9770    -7.4870 h1         1 N1Q       0.030700
     54 H25        -22.8390   -15.0940   -11.0490 h1         1 N1Q       0.027367
     55 H26        -23.5270   -15.4380    -9.4530 h1         1 N1Q       0.027367
     56 H27        -22.3940   -14.0910    -9.6560 h1         1 N1Q       0.027367
     57 F1          -9.0490   -15.7040    -2.7750 f          1 N1Q      -0.124900
@<TRIPOS>BOND
     1     1     2 1   
     2     1    29 1   
     3     1    31 1   
     4     1    32 1   
     5     2    28 1   
     6     2    33 1   
     7     2    34 1   
     8     3     4 1   
     9     3    28 1   
    10     3    35 1   
    11     3    36 1   
    12     4     5 1   
    13     4    37 1   
    14     4    38 1   
    15     5     6 1   
    16     5    16 1   
    17     5    39 1   
    18     6    26 1   
    19     6    40 1   
    20     6    41 1   
    21     7     8 1   
    22     7    25 2   
    23     7    26 1   
    24     8    21 1   
    25     8    24 2   
    26     9    10 ar  
    27     9    19 ar  
    28     9    42 1   
    29    10    11 1   
    30    10    20 ar  
    31    11    12 ar  
    32    11    17 ar  
    33    12    13 ar  
    34    12    43 1   
    35    13    14 ar  
    36    13    44 1   
    37    14    15 ar  
    38    14    45 1   
    39    15    17 ar  
    40    15    18 1   
    41    16    27 1   
    42    16    46 1   
    43    16    47 1   
    44    17    57 1   
    45    19    22 ar  
    46    19    48 1   
    47    20    21 ar  
    48    20    49 1   
    49    21    22 ar  
    50    22    23 1   
    51    23    24 1   
    52    23    50 1   
    53    26    51 1   
    54    27    28 1   
    55    27    52 1   
    56    27    53 1   
    57    29    30 1   
    58    30    54 1   
    59    30    55 1   
    60    30    56 1   
@<TRIPOS>SUBSTRUCTURE
     1 N1Q         1 TEMP              0 ****  ****    0 ROOT
