@<TRIPOS>MOLECULE
N1R
   55    56     1     0     0
SMALL
No Charge or Current Charge


@<TRIPOS>ATOM
      1 C10         24.9660   -22.8010    -1.4330 c6         1 N1R       0.096000
      2 C15         25.1820   -18.0690    -0.9090 c3         1 N1R      -0.095100
      3 C20         23.4130   -22.3090     2.7510 ca         1 N1R      -0.070000
      4 C21         22.0180   -22.2710     2.9070 ca         1 N1R       0.083000
      5 C24         21.9440   -20.1690     1.6870 ca         1 N1R      -0.159500
      6 C26         22.4630   -21.8940    -2.2990 c6         1 N1R      -0.088400
      7 C01         18.9690   -26.8930    -4.4070 c3         1 N1R       0.036600
      8 C05         18.6660   -24.4910    -1.3880 c3         1 N1R       0.099000
      9 C06         19.7970   -23.4410    -1.3260 c3         1 N1R      -0.097400
     10 C07         21.2230   -24.0320    -1.4660 c3         1 N1R      -0.068400
     11 C08         22.3830   -23.0190    -1.2360 c6         1 N1R      -0.061700
     12 C09         23.7580   -23.7400    -1.1590 c6         1 N1R      -0.088400
     13 C12         25.6440   -20.5570    -0.4750 c          1 N1R       0.580100
     14 C14         25.2280   -19.1750     0.1770 c3         1 N1R       0.123000
     15 C16         26.2080   -18.7220     1.2980 c3         1 N1R      -0.095100
     16 C18         23.3380   -20.2040     1.5100 ca         1 N1R       0.144100
     17 C19         24.0760   -21.2790     2.0580 ca         1 N1R      -0.159500
     18 C23         21.2820   -21.1980     2.3800 ca         1 N1R      -0.070000
     19 C25         23.4900   -20.8210    -1.8520 c6         1 N1R       0.096000
     20 N04         18.6010   -25.1730    -2.6860 ns         1 N1R      -0.502900
     21 N11         24.6730   -21.3750    -1.1190 n          1 N1R      -0.401800
     22 O03         19.7140   -27.0810    -2.1060 o          1 N1R      -0.584100
     23 O13         26.7900   -20.9790    -0.3460 o          1 N1R      -0.612100
     24 O17         23.8930   -19.1800     0.7590 os         1 N1R      -0.366100
     25 H101        25.8320   -23.1660    -0.8640 h1         1 N1R       0.058200
     26 H102        25.2340   -22.8660    -2.4980 h1         1 N1R       0.058200
     27 H153        24.9550   -17.0940    -0.4630 hc         1 N1R       0.055033
     28 H151        26.1500   -17.9900    -1.4190 hc         1 N1R       0.055033
     29 H152        24.4180   -18.2710    -1.6670 hc         1 N1R       0.055033
     30 H201        23.9800   -23.1400     3.1630 ha         1 N1R       0.131000
     31 H241        21.3710   -19.3460     1.2670 ha         1 N1R       0.135000
     32 H262        21.4890   -21.4120    -2.4520 hc         1 N1R       0.047950
     33 H261        22.7580   -22.3180    -3.2690 hc         1 N1R       0.047950
     34 H012        19.2790   -26.0920    -5.0880 h1         1 N1R       0.080200
     35 Cl1         17.2450   -27.3440    -4.8090 cl         1 N1R      -0.247000
     36 H011        19.5990   -27.7740    -4.5690 h1         1 N1R       0.080200
     37 H052        17.7040   -23.9910    -1.2150 h1         1 N1R       0.064200
     38 H051        18.8020   -25.2290    -0.5850 h1         1 N1R       0.064200
     39 H061        19.6230   -22.6950    -2.1090 hc         1 N1R       0.045200
     40 H062        19.7240   -22.9150    -0.3660 hc         1 N1R       0.045200
     41 H072        21.3200   -24.8520    -0.7430 hc         1 N1R       0.047700
     42 H071        21.3270   -24.4860    -2.4590 hc         1 N1R       0.047700
     43 H081        22.1910   -22.5520    -0.2590 hc         1 N1R       0.058700
     44 H091        23.7970   -24.5770    -1.8700 hc         1 N1R       0.047950
     45 H092        23.8660   -24.1850    -0.1600 hc         1 N1R       0.047950
     46 H163        26.3170   -19.4780     2.0810 hc         1 N1R       0.055033
     47 H162        27.2050   -18.5260     0.8840 hc         1 N1R       0.055033
     48 H161        25.8550   -17.7970     1.7710 hc         1 N1R       0.055033
     49 H191        25.1520   -21.3470     1.9540 ha         1 N1R       0.135000
     50 H231        20.2020   -21.1690     2.5020 ha         1 N1R       0.131000
     51 H252        23.8350   -20.2630    -2.7350 h1         1 N1R       0.058200
     52 H251        22.9540   -20.1120    -1.2120 h1         1 N1R       0.058200
     53 H041        18.1280   -24.7060    -3.4520 hn         1 N1R       0.310500
     54 Cl22        21.1930   -23.5680     3.7590 cl         1 N1R      -0.212000
     55 C02         19.1430   -26.4140    -2.9590 c          1 N1R       0.593100
@<TRIPOS>BOND
     1     1    12 1   
     2     1    21 1   
     3     1    25 1   
     4     1    26 1   
     5     2    14 1   
     6     2    27 1   
     7     2    28 1   
     8     2    29 1   
     9     3     4 ar  
    10     3    17 ar  
    11     3    30 1   
    12     4    18 ar  
    13     4    54 1   
    14     5    16 ar  
    15     5    18 ar  
    16     5    31 1   
    17     6    11 1   
    18     6    19 1   
    19     6    32 1   
    20     6    33 1   
    21     7    34 1   
    22     7    35 1   
    23     7    36 1   
    24     7    55 1   
    25     8     9 1   
    26     8    20 1   
    27     8    37 1   
    28     8    38 1   
    29     9    10 1   
    30     9    39 1   
    31     9    40 1   
    32    10    11 1   
    33    10    41 1   
    34    10    42 1   
    35    11    12 1   
    36    11    43 1   
    37    12    44 1   
    38    12    45 1   
    39    13    14 1   
    40    13    21 1   
    41    13    23 2   
    42    14    15 1   
    43    14    24 1   
    44    15    46 1   
    45    15    47 1   
    46    15    48 1   
    47    16    17 ar  
    48    16    24 1   
    49    17    49 1   
    50    18    50 1   
    51    19    21 1   
    52    19    51 1   
    53    19    52 1   
    54    20    53 1   
    55    20    55 1   
    56    22    55 2   
@<TRIPOS>SUBSTRUCTURE
     1 N1R         1 TEMP              0 ****  ****    0 ROOT
