@<TRIPOS>MOLECULE
N1R
   55    56     1     0     0
SMALL
abcg2


@<TRIPOS>ATOM
      1 C10         25.0700   -22.6560    -1.8100 c6         1 N1R       0.096000
      2 C15         25.3200   -18.2670    -0.8790 c3         1 N1R      -0.095100
      3 C20         22.9340   -22.2800     2.5380 ca         1 N1R      -0.070000
      4 C21         21.5560   -22.1480     2.5660 ca         1 N1R       0.083000
      5 C24         21.7070   -20.1080     1.3240 ca         1 N1R      -0.159500
      6 C26         22.5140   -21.8890    -2.2510 c6         1 N1R      -0.088400
      7 C01         18.8410   -26.4940    -4.2770 c3         1 N1R       0.036600
      8 C05         19.0410   -24.6060    -0.9750 c3         1 N1R       0.099000
      9 C06         20.1330   -23.5400    -0.9020 c3         1 N1R      -0.097400
     10 C07         21.5110   -24.0490    -1.3150 c3         1 N1R      -0.068400
     11 C08         22.6200   -23.0030    -1.2080 c6         1 N1R      -0.061700
     12 C09         24.0130   -23.6540    -1.3170 c6         1 N1R      -0.088400
     13 C12         25.5170   -20.7310    -0.3950 c          1 N1R       0.580100
     14 C14         25.1310   -19.3410     0.1920 c3         1 N1R       0.123000
     15 C16         25.9950   -18.9950     1.4020 c3         1 N1R      -0.095100
     16 C18         23.0980   -20.2330     1.2730 ca         1 N1R       0.144100
     17 C19         23.7100   -21.3200     1.8950 ca         1 N1R      -0.159500
     18 C23         20.9340   -21.0590     1.9670 ca         1 N1R      -0.070000
     19 C25         23.5340   -20.7680    -1.9770 c6         1 N1R       0.096000
     20 N04         18.7920   -25.0650    -2.3360 ns         1 N1R      -0.502900
     21 N11         24.7420   -21.3100    -1.3350 n          1 N1R      -0.401800
     22 O03         19.7180   -27.1360    -2.1420 o          1 N1R      -0.584100
     23 O13         26.5600   -21.2580     0.0070 o          1 N1R      -0.612100
     24 O17         23.7330   -19.2560     0.5670 os         1 N1R      -0.366100
     25 H101        26.0640   -22.9180    -1.4670 h1         1 N1R       0.058200
     26 H102        25.0860   -22.6240    -2.9020 h1         1 N1R       0.058200
     27 H153        25.0940   -17.2900    -0.4510 hc         1 N1R       0.055033
     28 H151        26.3580   -18.2690    -1.2140 hc         1 N1R       0.055033
     29 H152        24.6750   -18.4290    -1.7400 hc         1 N1R       0.055033
     30 H201        23.4110   -23.1310     3.0030 ha         1 N1R       0.131000
     31 H241        21.2390   -19.2650     0.8320 ha         1 N1R       0.135000
     32 H262        21.5190   -21.4430    -2.2560 hc         1 N1R       0.047950
     33 H261        22.6740   -22.3160    -3.2440 hc         1 N1R       0.047950
     34 H012        18.4580   -25.6110    -4.7790 h1         1 N1R       0.080200
     35 CL1         17.5690   -27.7720    -4.4290 cl         1 N1R      -0.247000
     36 H011        19.7240   -26.8700    -4.7850 h1         1 N1R       0.080200
     37 H052        18.1060   -24.2090    -0.5770 h1         1 N1R       0.064200
     38 H051        19.3160   -25.4790    -0.3860 h1         1 N1R       0.064200
     39 H061        19.8350   -22.6890    -1.5210 hc         1 N1R       0.045200
     40 H062        20.1740   -23.1770     0.1280 hc         1 N1R       0.045200
     41 H072        21.7720   -24.9010    -0.6770 hc         1 N1R       0.047700
     42 H071        21.4780   -24.4310    -2.3410 hc         1 N1R       0.047700
     43 H081        22.5430   -22.5400    -0.2230 hc         1 N1R       0.058700
     44 H091        23.9770   -24.4940    -2.0170 hc         1 N1R       0.047950
     45 H092        24.3020   -24.0580    -0.3440 hc         1 N1R       0.047950
     46 H163        25.9280   -19.7380     2.1930 hc         1 N1R       0.055033
     47 H162        27.0380   -18.9070     1.1080 hc         1 N1R       0.055033
     48 H161        25.6580   -18.0340     1.7920 hc         1 N1R       0.055033
     49 H191        24.7790   -21.4580     1.8720 ha         1 N1R       0.135000
     50 H231        19.8570   -20.9640     1.9880 ha         1 N1R       0.131000
     51 H252        23.8210   -20.2880    -2.9180 h1         1 N1R       0.058200
     52 H251        23.0950   -20.0150    -1.3390 h1         1 N1R       0.058200
     53 H041        18.3540   -24.4150    -2.9710 hn         1 N1R       0.310500
     54 CL22        20.5800   -23.3820     3.3390 cl         1 N1R      -0.212000
     55 C02         19.1600   -26.2650    -2.8070 c          1 N1R       0.593100
@<TRIPOS>BOND
     1     1    12 1   
     2     1    21 1   
     3     1    25 1   
     4     1    26 1   
     5     2    14 1   
     6     2    27 1   
     7     2    28 1   
     8     2    29 1   
     9     3     4 ar  
    10     3    17 ar  
    11     3    30 1   
    12     4    18 ar  
    13     4    54 1   
    14     5    16 ar  
    15     5    18 ar  
    16     5    31 1   
    17     6    11 1   
    18     6    19 1   
    19     6    32 1   
    20     6    33 1   
    21     7    34 1   
    22     7    35 1   
    23     7    36 1   
    24     7    55 1   
    25     8     9 1   
    26     8    20 1   
    27     8    37 1   
    28     8    38 1   
    29     9    10 1   
    30     9    39 1   
    31     9    40 1   
    32    10    11 1   
    33    10    41 1   
    34    10    42 1   
    35    11    12 1   
    36    11    43 1   
    37    12    44 1   
    38    12    45 1   
    39    13    14 1   
    40    13    21 1   
    41    13    23 2   
    42    14    15 1   
    43    14    24 1   
    44    15    46 1   
    45    15    47 1   
    46    15    48 1   
    47    16    17 ar  
    48    16    24 1   
    49    17    49 1   
    50    18    50 1   
    51    19    21 1   
    52    19    51 1   
    53    19    52 1   
    54    20    53 1   
    55    20    55 1   
    56    22    55 2   
@<TRIPOS>SUBSTRUCTURE
     1 N1R         1 TEMP              0 ****  ****    0 ROOT
