@<TRIPOS>MOLECULE
N1S
   42    41     1     0     0
SMALL
No Charge or Current Charge


@<TRIPOS>ATOM
      1 C1          -4.1110    -2.1780     0.0890 c3         1 N1S      -0.055900
      2 C2          -4.9380    -0.9080     0.2270 c2         1 N1S      -0.112400
      3 C3          -6.4270    -1.1750     0.1030 c3         1 N1S      -0.055900
      4 C4          -4.4420     0.3270     0.4320 c2         1 N1S      -0.224200
      5 C5          -2.9850     0.7210     0.6000 c3         1 N1S      -0.035200
      6 C6          -2.3000     1.0150    -0.7520 c3         1 N1S      -0.038200
      7 C7          -0.8140     1.3190    -0.6160 c2         1 N1S      -0.113400
      8 C8          -0.5370     2.7410    -0.1430 c3         1 N1S      -0.054900
      9 C9           0.1290     0.4030    -0.9080 c2         1 N1S      -0.220200
     10 C10          1.6360     0.5780    -0.8530 c3         1 N1S      -0.039200
     11 C11          2.2020     0.3040     0.5570 c3         1 N1S      -0.040200
     12 C12          3.7170     0.4530     0.6270 c2         1 N1S      -0.095400
     13 C13          4.1730     1.8960     0.7730 c3         1 N1S      -0.056900
     14 C14          4.5840    -0.5760     0.5800 c2         1 N1S      -0.225200
     15 C15          4.2320    -2.0400     0.4370 c3         1 N1S       0.198800
     16 O1           5.4230    -2.8040     0.2430 oh         1 N1S      -0.658000
     17 H11         -3.0330    -1.9910     0.1170 hc         1 N1S       0.038367
     18 H21         -4.3420    -2.8850     0.8960 hc         1 N1S       0.038367
     19 H31         -4.3230    -2.6810    -0.8620 hc         1 N1S       0.038367
     20 H13         -6.7690    -1.8710     0.8770 hc         1 N1S       0.038367
     21 H33         -7.0160    -0.2550     0.2050 hc         1 N1S       0.038367
     22 H23         -6.6700    -1.6120    -0.8730 hc         1 N1S       0.038367
     23 H4          -5.1250     1.1740     0.5110 ha         1 N1S       0.164000
     24 H25         -2.9200     1.6060     1.2440 hc         1 N1S       0.044700
     25 H15         -2.4270    -0.0650     1.1210 hc         1 N1S       0.044700
     26 H16         -2.4400     0.1390    -1.3980 hc         1 N1S       0.045200
     27 H26         -2.8180     1.8410    -1.2540 hc         1 N1S       0.045200
     28 H28         -0.9930     2.9320     0.8350 hc         1 N1S       0.038700
     29 H38          0.5320     2.9540    -0.0370 hc         1 N1S       0.038700
     30 H18         -0.9440     3.4760    -0.8480 hc         1 N1S       0.038700
     31 H9          -0.1740    -0.5910    -1.2410 ha         1 N1S       0.164000
     32 H101         2.1130    -0.1050    -1.5680 hc         1 N1S       0.051200
     33 H102         1.9190     1.5870    -1.1730 hc         1 N1S       0.051200
     34 H111         1.7200     0.9730     1.2800 hc         1 N1S       0.044700
     35 H112         1.9020    -0.7090     0.8510 hc         1 N1S       0.044700
     36 H133         3.7560     2.3520     1.6790 hc         1 N1S       0.040700
     37 H132         5.2650     1.9710     0.8430 hc         1 N1S       0.040700
     38 H131         3.8590     2.5040    -0.0830 hc         1 N1S       0.040700
     39 H14          5.6550    -0.3850     0.6450 ha         1 N1S       0.176000
     40 H151         3.7070    -2.3800     1.3400 h1         1 N1S       0.021200
     41 H152         3.5540    -2.1740    -0.4170 h1         1 N1S       0.021200
     42 HO1          5.1450    -3.7420     0.1540 ho         1 N1S       0.438000
@<TRIPOS>BOND
     1     1     2 1   
     2     1    17 1   
     3     1    18 1   
     4     1    19 1   
     5     2     3 1   
     6     2     4 2   
     7     3    20 1   
     8     3    21 1   
     9     3    22 1   
    10     4     5 1   
    11     4    23 1   
    12     5     6 1   
    13     5    24 1   
    14     5    25 1   
    15     6     7 1   
    16     6    26 1   
    17     6    27 1   
    18     7     8 1   
    19     7     9 2   
    20     8    28 1   
    21     8    29 1   
    22     8    30 1   
    23     9    10 1   
    24     9    31 1   
    25    10    11 1   
    26    10    32 1   
    27    10    33 1   
    28    11    12 1   
    29    11    34 1   
    30    11    35 1   
    31    12    13 1   
    32    12    14 2   
    33    13    36 1   
    34    13    37 1   
    35    13    38 1   
    36    14    15 1   
    37    14    39 1   
    38    15    16 1   
    39    15    40 1   
    40    15    41 1   
    41    16    42 1   
@<TRIPOS>SUBSTRUCTURE
     1 N1S         1 TEMP              0 ****  ****    0 ROOT
