@<TRIPOS>MOLECULE
N1S
   42    41     1     0     0
SMALL
abcg2


@<TRIPOS>ATOM
      1 C1          -4.3510    -2.0020     0.9700 c3         1 N1S      -0.055900
      2 C2          -5.0010    -0.8090     0.3350 c2         1 N1S      -0.112400
      3 C3          -6.4530    -0.9980     0.0010 c3         1 N1S      -0.055900
      4 C4          -4.3770     0.3410     0.0660 c2         1 N1S      -0.224200
      5 C5          -2.9400     0.6850     0.3070 c3         1 N1S      -0.035200
      6 C6          -2.1420     0.7330    -1.0060 c3         1 N1S      -0.038200
      7 C7          -0.7130     1.1700    -0.8160 c2         1 N1S      -0.113400
      8 C8          -0.5130     2.6350    -0.5650 c3         1 N1S      -0.054900
      9 C9           0.2770     0.2750    -0.8690 c2         1 N1S      -0.220200
     10 C10          1.7400     0.5140    -0.6620 c3         1 N1S      -0.039200
     11 C11          2.1880     0.1120     0.7530 c3         1 N1S      -0.040200
     12 C12          3.6620     0.3540     0.9580 c2         1 N1S      -0.095400
     13 C13          4.0110     1.6970     1.5270 c3         1 N1S      -0.056900
     14 C14          4.6140    -0.5180     0.6210 c2         1 N1S      -0.225200
     15 C15          4.4110    -1.8750     0.0300 c3         1 N1S       0.198800
     16 O1           4.9160    -1.8700    -1.2960 oh         1 N1S      -0.658000
     17 H11         -3.3150    -1.8320     1.2570 hc         1 N1S       0.038367
     18 H21         -4.8990    -2.3080     1.8650 hc         1 N1S       0.038367
     19 H31         -4.3710    -2.8560     0.2880 hc         1 N1S       0.038367
     20 H13         -7.0290    -1.2560     0.8930 hc         1 N1S       0.038367
     21 H33         -6.8940    -0.1040    -0.4390 hc         1 N1S       0.038367
     22 H23         -6.5890    -1.8240    -0.7030 hc         1 N1S       0.038367
     23 H4          -4.9570     1.1260    -0.4160 ha         1 N1S       0.164000
     24 H25         -2.8890     1.6600     0.8020 hc         1 N1S       0.044700
     25 H15         -2.4620    -0.0260     0.9830 hc         1 N1S       0.044700
     26 H16         -2.1700    -0.2590    -1.4640 hc         1 N1S       0.045200
     27 H26         -2.6450     1.4130    -1.7030 hc         1 N1S       0.045200
     28 H28         -1.1280     2.9800     0.2700 hc         1 N1S       0.038700
     29 H38          0.5180     2.8960    -0.3340 hc         1 N1S       0.038700
     30 H18         -0.8220     3.2200    -1.4350 hc         1 N1S       0.038700
     31 H9           0.0020    -0.7630    -1.0500 ha         1 N1S       0.164000
     32 H101         2.3100    -0.0780    -1.3830 hc         1 N1S       0.051200
     33 H102         2.0060     1.5570    -0.8480 hc         1 N1S       0.051200
     34 H111         1.6180     0.6950     1.4810 hc         1 N1S       0.044700
     35 H112         1.9230    -0.9330     0.9280 hc         1 N1S       0.044700
     36 H133         3.6390     1.7950     2.5500 hc         1 N1S       0.040700
     37 H132         5.0860     1.8730     1.5410 hc         1 N1S       0.040700
     38 H131         3.5430     2.5000     0.9510 hc         1 N1S       0.040700
     39 H14          5.6520    -0.2300     0.7710 ha         1 N1S       0.176000
     40 H151         4.9440    -2.6150     0.6420 h1         1 N1S       0.021200
     41 H152         3.3530    -2.1580     0.0480 h1         1 N1S       0.021200
     42 HO1          4.9220    -2.7790    -1.6100 ho         1 N1S       0.438000
@<TRIPOS>BOND
     1     1     2 1   
     2     1    17 1   
     3     1    18 1   
     4     1    19 1   
     5     2     3 1   
     6     2     4 2   
     7     3    20 1   
     8     3    21 1   
     9     3    22 1   
    10     4     5 1   
    11     4    23 1   
    12     5     6 1   
    13     5    24 1   
    14     5    25 1   
    15     6     7 1   
    16     6    26 1   
    17     6    27 1   
    18     7     8 1   
    19     7     9 2   
    20     8    28 1   
    21     8    29 1   
    22     8    30 1   
    23     9    10 1   
    24     9    31 1   
    25    10    11 1   
    26    10    32 1   
    27    10    33 1   
    28    11    12 1   
    29    11    34 1   
    30    11    35 1   
    31    12    13 1   
    32    12    14 2   
    33    13    36 1   
    34    13    37 1   
    35    13    38 1   
    36    14    15 1   
    37    14    39 1   
    38    15    16 1   
    39    15    40 1   
    40    15    41 1   
    41    16    42 1   
@<TRIPOS>SUBSTRUCTURE
     1 N1S         1 TEMP              0 ****  ****    0 ROOT
