@<TRIPOS>MOLECULE
N1U
   42    44     1     0     0
SMALL
abcg2


@<TRIPOS>ATOM
      1 C4          10.4770    -1.2470    24.2400 ca         1 N1U      -0.169000
      2 C5          10.0270    -1.8230    23.0460 ca         1 N1U      -0.108300
      3 C6           8.6620    -2.4780    23.0350 c3         1 N1U       0.157300
      4 C7           8.1100    -3.8620    21.0790 c          1 N1U       0.528000
      5 C8           7.5500    -3.6740    19.6610 c5         1 N1U       0.145600
      6 C10          7.5290    -1.6460    20.8750 ca         1 N1U      -0.002000
      7 C13          6.6850     0.4350    20.0980 ca         1 N1U      -0.054000
      8 C15          6.5480    -1.5060    18.6540 ca         1 N1U      -0.018000
      9 C17         12.1010    -1.1830    21.9920 ca         1 N1U      -0.165000
     10 C14          6.3170    -0.1570    18.9010 ca         1 N1U      -0.040900
     11 C9           7.1570    -2.2290    19.6570 ca         1 N1U      -0.142300
     12 O3           6.4550    -4.5310    19.3890 oh         1 N1U      -0.629000
     13 O2           8.4930    -4.9150    21.5580 o          1 N1U      -0.522000
     14 C11          7.3010    -0.2910    21.1280 ca         1 N1U      -0.094300
     15 C12          7.6410     0.4280    22.4060 c3         1 N1U      -0.045800
     16 N            8.1020    -2.6440    21.7050 n          1 N1U      -0.218400
     17 C2          11.7230    -0.6440    24.3160 ca         1 N1U       0.115100
     18 O1          12.2280    -0.0540    25.4300 os         1 N1U      -0.328100
     19 C3          11.4230    -0.0470    26.6080 c3         1 N1U       0.145900
     20 C16         10.8420    -1.7870    21.9300 ca         1 N1U      -0.090000
     21 C1          12.5530    -0.6100    23.1710 ca         1 N1U       0.114100
     22 O           13.7550     0.0060    23.3270 os         1 N1U      -0.327100
     23 C           14.6270     0.0600    22.2000 c3         1 N1U       0.144900
     24 H1           9.8310    -1.2640    25.1060 ha         1 N1U       0.117000
     25 H2           7.9660    -1.9170    23.6560 h1         1 N1U       0.072700
     26 H3           8.7270    -3.4820    23.4550 h1         1 N1U       0.072700
     27 H4           8.3710    -3.8570    18.9560 h1         1 N1U       0.070700
     28 H5           6.4910     1.4870    20.2560 ha         1 N1U       0.130000
     29 H6           6.2660    -1.9700    17.7190 ha         1 N1U       0.142000
     30 H7          12.7200    -1.1620    21.1070 ha         1 N1U       0.121000
     31 H8           6.7860    -5.4390    19.3530 ho         1 N1U       0.461000
     32 H9           7.0500     0.0570    23.2450 hc         1 N1U       0.049367
     33 H10          8.6930     0.3160    22.6680 hc         1 N1U       0.049367
     34 H11          7.4300     1.4900    22.2960 hc         1 N1U       0.049367
     35 H12         12.0080     0.4710    27.3640 h1         1 N1U       0.041700
     36 H13         10.4850     0.4870    26.4390 h1         1 N1U       0.041700
     37 H14         11.2090    -1.0650    26.9440 h1         1 N1U       0.041700
     38 H15         10.5150    -2.2180    20.9930 ha         1 N1U       0.117000
     39 H16         15.5190     0.5810    22.5390 h1         1 N1U       0.042033
     40 H17         14.8940    -0.9440    21.8600 h1         1 N1U       0.042033
     41 H18         14.1700     0.6140    21.3750 h1         1 N1U       0.042033
     42 BR           5.4720     0.9120    17.5520 br         1 N1U      -0.103100
@<TRIPOS>BOND
     1     1     2 ar  
     2     1    17 ar  
     3     1    24 1   
     4     2     3 1   
     5     2    20 ar  
     6     3    16 1   
     7     3    25 1   
     8     3    26 1   
     9     4     5 1   
    10     4    13 2   
    11     4    16 1   
    12     5    11 1   
    13     5    12 1   
    14     5    27 1   
    15     6    11 ar  
    16     6    14 ar  
    17     6    16 1   
    18     7    10 ar  
    19     7    14 ar  
    20     7    28 1   
    21     8    10 ar  
    22     8    11 ar  
    23     8    29 1   
    24     9    20 ar  
    25     9    21 ar  
    26     9    30 1   
    27    10    42 1   
    28    12    31 1   
    29    14    15 1   
    30    15    32 1   
    31    15    33 1   
    32    15    34 1   
    33    17    18 1   
    34    17    21 ar  
    35    18    19 1   
    36    19    35 1   
    37    19    36 1   
    38    19    37 1   
    39    20    38 1   
    40    21    22 1   
    41    22    23 1   
    42    23    39 1   
    43    23    40 1   
    44    23    41 1   
@<TRIPOS>SUBSTRUCTURE
     1 N1U         1 TEMP              0 ****  ****    0 ROOT
