@<TRIPOS>MOLECULE
N1U
   42    44     1     0     0
SMALL
No Charge or Current Charge


@<TRIPOS>ATOM
      1 C4          10.4500    -1.2270    24.1970 ca         1 N1U      -0.169000
      2 C5          10.0480    -1.9470    23.0540 ca         1 N1U      -0.108300
      3 C6           8.6910    -2.6560    23.0500 c3         1 N1U       0.157300
      4 C7           8.0470    -3.9920    21.0280 c          1 N1U       0.528000
      5 C8           7.5720    -3.6390    19.5690 c5         1 N1U       0.145600
      6 C10          7.6230    -1.6540    20.9190 ca         1 N1U      -0.002000
      7 C13          6.7470     0.5100    20.2590 ca         1 N1U      -0.054000
      8 C15          6.7740    -1.3300    18.6570 ca         1 N1U      -0.018000
      9 C17         12.1540    -1.3590    21.9640 ca         1 N1U      -0.165000
     10 C14          6.5150     0.0160    18.9600 ca         1 N1U      -0.040900
     11 C9           7.3070    -2.1510    19.6600 ca         1 N1U      -0.142300
     12 O3           6.3850    -4.3660    19.1980 oh         1 N1U      -0.629000
     13 O2           8.3780    -5.0810    21.4860 o          1 N1U      -0.522000
     14 C11          7.2720    -0.3250    21.2730 ca         1 N1U      -0.094300
     15 C12          7.4290     0.2530    22.6750 c3         1 N1U      -0.045800
     16 N            8.0390    -2.7640    21.7240 n          1 N1U      -0.218400
     17 C2          11.6980    -0.5620    24.2280 ca         1 N1U       0.115100
     18 O1          12.1110     0.1600    25.3370 os         1 N1U      -0.328100
     19 C3          11.3040     0.2920    26.5200 c3         1 N1U       0.145900
     20 C16         10.9120    -2.0150    21.9440 ca         1 N1U      -0.090000
     21 C1          12.5550    -0.6270    23.1040 ca         1 N1U       0.114100
     22 O           13.7730     0.0330    23.1560 os         1 N1U      -0.327100
     23 C           14.7050     0.0230    22.0610 c3         1 N1U       0.144900
     24 H1           9.7790    -1.1910    25.0500 ha         1 N1U       0.117000
     25 H2           8.0050    -2.1540    23.7400 h1         1 N1U       0.072700
     26 H3           8.8390    -3.6610    23.4620 h1         1 N1U       0.072700
     27 H4           8.4020    -3.8410    18.8780 h1         1 N1U       0.070700
     28 H5           6.4970     1.5450    20.4820 ha         1 N1U       0.130000
     29 H6           6.5480    -1.7320    17.6720 ha         1 N1U       0.142000
     30 H7          12.7900    -1.4320    21.0870 ha         1 N1U       0.121000
     31 H8           6.6020    -5.3240    19.2630 ho         1 N1U       0.461000
     32 H9           6.8650    -0.3290    23.4130 hc         1 N1U       0.049367
     33 H10          8.4800     0.2890    22.9780 hc         1 N1U       0.049367
     34 H11          7.0500     1.2800    22.7330 hc         1 N1U       0.049367
     35 H12         11.8230     0.9050    27.2670 h1         1 N1U       0.041700
     36 H13         10.3470     0.7760    26.2880 h1         1 N1U       0.041700
     37 H14         11.1040    -0.6910    26.9670 h1         1 N1U       0.041700
     38 H15         10.6280    -2.5750    21.0560 ha         1 N1U       0.117000
     39 H16         15.5980     0.6070    22.3170 h1         1 N1U       0.042033
     40 H17         15.0240    -1.0010    21.8300 h1         1 N1U       0.042033
     41 H18         14.2560     0.4650    21.1620 h1         1 N1U       0.042033
     42 Br           5.7840     1.1690    17.6210 br         1 N1U      -0.103100
@<TRIPOS>BOND
     1     1     2 ar  
     2     1    17 ar  
     3     1    24 1   
     4     2     3 1   
     5     2    20 ar  
     6     3    16 1   
     7     3    25 1   
     8     3    26 1   
     9     4     5 1   
    10     4    13 2   
    11     4    16 1   
    12     5    11 1   
    13     5    12 1   
    14     5    27 1   
    15     6    11 ar  
    16     6    14 ar  
    17     6    16 1   
    18     7    10 ar  
    19     7    14 ar  
    20     7    28 1   
    21     8    10 ar  
    22     8    11 ar  
    23     8    29 1   
    24     9    20 ar  
    25     9    21 ar  
    26     9    30 1   
    27    10    42 1   
    28    12    31 1   
    29    14    15 1   
    30    15    32 1   
    31    15    33 1   
    32    15    34 1   
    33    17    18 1   
    34    17    21 ar  
    35    18    19 1   
    36    19    35 1   
    37    19    36 1   
    38    19    37 1   
    39    20    38 1   
    40    21    22 1   
    41    22    23 1   
    42    23    39 1   
    43    23    40 1   
    44    23    41 1   
@<TRIPOS>SUBSTRUCTURE
     1 N1U         1 TEMP              0 ****  ****    0 ROOT
