@<TRIPOS>MOLECULE
N1V
   68    71     1     0     0
SMALL
No Charge or Current Charge


@<TRIPOS>ATOM
      1 C25         -2.0090     2.8590     0.8780 ca         1 N1V      -0.105000
      2 C24         -2.1400     4.0740     1.5730 ca         1 N1V      -0.113500
      3 C26         -0.3510    -2.6380     0.5560 c5         1 N1V       0.221300
      4 C23         -1.1110     4.5120     2.4240 ca         1 N1V      -0.109000
      5 C22          0.0480     3.7330     2.5800 ca         1 N1V      -0.113500
      6 C21          0.1770     2.5180     1.8850 ca         1 N1V      -0.105000
      7 C20         -0.8510     2.0740     1.0320 ca         1 N1V      -0.034800
      8 C19         -0.7020     0.7890     0.2930 ce         1 N1V      -0.076400
      9 C18          7.3410     3.3150    -1.3180 c3         1 N1V      -0.089100
     10 C17          5.8650     3.5180    -1.7070 c3         1 N1V      -0.074400
     11 C16          4.9370     2.4280    -1.1290 c3         1 N1V      -0.077400
     12 C11          0.0930    -0.7750    -1.2240 c5         1 N1V      -0.032200
     13 C12          0.1480     0.6620    -0.7360 c2         1 N1V      -0.082400
     14 C13          1.0530     1.7090    -1.3580 c3         1 N1V      -0.032200
     15 C14          2.5320     1.5240    -0.9550 c3         1 N1V      -0.072400
     16 C10         -0.9970    -1.5300    -0.3500 c5         1 N1V      -0.074700
     17 C03         -3.8020    -0.4710    -0.5130 ca         1 N1V      -0.057800
     18 C04         -3.4620     0.2280    -1.6900 ca         1 N1V      -0.099000
     19 C05         -4.2080     0.0460    -2.8670 ca         1 N1V      -0.114500
     20 C06         -5.3020    -0.8350    -2.8780 ca         1 N1V      -0.110000
     21 C07         -5.6490    -1.5340    -1.7090 ca         1 N1V      -0.114500
     22 C08         -4.9020    -1.3510    -0.5320 ca         1 N1V      -0.099000
     23 C09         -1.4690    -0.4530     0.7080 c5         1 N1V       0.033400
     24 C32          0.3040    -1.8100     1.6940 c5         1 N1V      -0.087400
     25 C33         -0.9170    -0.9410     2.0980 c5         1 N1V      -0.069400
     26 N30          1.0890    -5.6290    -0.8200 n8         1 N1V      -1.056100
     27 O27          0.6560    -3.3600    -0.1840 os         1 N1V      -0.556700
     28 O29          0.5760    -5.2100     1.5780 o          1 N1V      -0.556000
     29 O31          2.8000    -4.5010     0.5100 o          1 N1V      -0.556000
     30 S28          1.3540    -4.6840     0.4570 s6         1 N1V       1.396800
     31 H251        -2.8070     2.5290     0.2180 ha         1 N1V       0.118000
     32 H241        -3.0380     4.6760     1.4500 ha         1 N1V       0.112000
     33 H261        -1.1200    -3.3280     0.9330 h1         1 N1V       0.055700
     34 H231        -1.2120     5.4520     2.9620 ha         1 N1V       0.112000
     35 H221         0.8450     4.0700     3.2390 ha         1 N1V       0.112000
     36 H211         1.0740     1.9170     2.0110 ha         1 N1V       0.118000
     37 H183         7.7120     2.3520    -1.6880 hc         1 N1V       0.031367
     38 H181         7.9620     4.1100    -1.7480 hc         1 N1V       0.031367
     39 H182         7.4620     3.3380    -0.2280 hc         1 N1V       0.031367
     40 H172         5.5340     4.5030    -1.3550 hc         1 N1V       0.034700
     41 H171         5.7830     3.5240    -2.8010 hc         1 N1V       0.034700
     42 H162         5.2850     1.4460    -1.4710 hc         1 N1V       0.041200
     43 H161         5.0150     2.4330    -0.0350 hc         1 N1V       0.041200
     44 H151         3.1130     3.5990    -1.1930 hc         1 N1V       0.035200
     45 H152         3.3810     2.6090    -2.6290 hc         1 N1V       0.035200
     46 H111        -0.1910    -0.7960    -2.2820 hc         1 N1V       0.056700
     47 H112         1.0930    -1.2170    -1.1760 hc         1 N1V       0.056700
     48 H131         0.9690     1.6650    -2.4510 hc         1 N1V       0.049700
     49 H132         0.7280     2.7150    -1.0680 hc         1 N1V       0.049700
     50 H142         2.8780     0.5400    -1.2940 hc         1 N1V       0.044700
     51 H141         2.6100     1.5290     0.1390 hc         1 N1V       0.044700
     52 H101        -1.7910    -1.9540    -0.9720 hc         1 N1V       0.070700
     53 H012        -4.7830     0.2430     1.8120 ha         1 N1V       0.170000
     54 H011        -3.2170     0.3120     2.7900 ha         1 N1V       0.170000
     55 H041        -2.6200     0.9150    -1.6950 ha         1 N1V       0.117500
     56 H051        -3.9380     0.5880    -3.7710 ha         1 N1V       0.112500
     57 H061        -5.8790    -0.9760    -3.7890 ha         1 N1V       0.112000
     58 H071        -6.4950    -2.2170    -1.7150 ha         1 N1V       0.112500
     59 H081        -5.1740    -1.9010     0.3660 ha         1 N1V       0.117500
     60 H322         0.6520    -2.4310     2.5260 hc         1 N1V       0.069200
     61 H321         1.1530    -1.2070     1.3500 hc         1 N1V       0.069200
     62 H331        -0.6480    -0.1220     2.7730 hc         1 N1V       0.055700
     63 H332        -1.6510    -1.5590     2.6290 hc         1 N1V       0.055700
     64 H301         2.0530    -5.7540    -1.1140 hn         1 N1V       0.482500
     65 H302         0.7410    -4.8990    -1.4360 hn         1 N1V       0.482500
     66 C02         -3.0100    -0.2890     0.7420 ce         1 N1V      -0.047400
     67 C15          3.4590     2.6150    -1.5340 c3         1 N1V      -0.075400
     68 C01         -3.7030     0.1000     1.8390 c2         1 N1V      -0.306000
@<TRIPOS>BOND
     1     1     2 ar  
     2     1     7 ar  
     3     1    31 1   
     4     2     4 ar  
     5     2    32 1   
     6     3    16 1   
     7     3    24 1   
     8     3    27 1   
     9     3    33 1   
    10     4     5 ar  
    11     4    34 1   
    12     5     6 ar  
    13     5    35 1   
    14     6     7 ar  
    15     6    36 1   
    16     7     8 1   
    17     8    13 2   
    18     8    23 1   
    19     9    10 1   
    20     9    37 1   
    21     9    38 1   
    22     9    39 1   
    23    10    11 1   
    24    10    40 1   
    25    10    41 1   
    26    11    42 1   
    27    11    43 1   
    28    11    67 1   
    29    12    13 1   
    30    12    16 1   
    31    12    46 1   
    32    12    47 1   
    33    13    14 1   
    34    14    15 1   
    35    14    48 1   
    36    14    49 1   
    37    15    50 1   
    38    15    51 1   
    39    15    67 1   
    40    16    23 1   
    41    16    52 1   
    42    17    18 ar  
    43    17    22 ar  
    44    17    66 1   
    45    18    19 ar  
    46    18    55 1   
    47    19    20 ar  
    48    19    56 1   
    49    20    21 ar  
    50    20    57 1   
    51    21    22 ar  
    52    21    58 1   
    53    22    59 1   
    54    23    25 1   
    55    23    66 1   
    56    24    25 1   
    57    24    60 1   
    58    24    61 1   
    59    25    62 1   
    60    25    63 1   
    61    26    30 1   
    62    26    64 1   
    63    26    65 1   
    64    27    30 1   
    65    28    30 2   
    66    29    30 2   
    67    44    67 1   
    68    45    67 1   
    69    53    68 1   
    70    54    68 1   
    71    66    68 2   
@<TRIPOS>SUBSTRUCTURE
     1 N1V         1 TEMP              0 ****  ****    0 ROOT
