@<TRIPOS>MOLECULE
N1V
   68    71     1     0     0
SMALL
bcc


@<TRIPOS>ATOM
      1 C25         -2.2250     2.5260     1.7820 ca         1 N1V      -0.123000
      2 C24         -2.2810     3.7120     2.5020 ca         1 N1V      -0.131500
      3 C26          0.0450    -2.2170     1.2800 c5         1 N1V       0.198100
      4 C23         -1.1140     4.3750     2.8570 ca         1 N1V      -0.127000
      5 C22          0.1120     3.8340     2.4920 ca         1 N1V      -0.131500
      6 C21          0.1660     2.6470     1.7750 ca         1 N1V      -0.123000
      7 C20         -1.0000     1.9780     1.3910 ca         1 N1V      -0.034800
      8 C19         -0.9130     0.7250     0.6240 ce         1 N1V      -0.076400
      9 C18          6.9950     2.5930    -1.9760 c3         1 N1V      -0.089100
     10 C17          5.5210     2.8130    -2.2870 c3         1 N1V      -0.074400
     11 C16          4.6050     1.9010    -1.4810 c3         1 N1V      -0.077400
     12 C11         -0.2840    -0.9010    -0.9440 c5         1 N1V      -0.032200
     13 C12         -0.1430     0.5090    -0.4520 c2         1 N1V      -0.082400
     14 C13          0.7330     1.4710    -1.1810 c3         1 N1V      -0.032200
     15 C14          2.2240     1.2000    -0.9550 c3         1 N1V      -0.072400
     16 C10         -0.9330    -1.6270     0.2300 c5         1 N1V      -0.074700
     17 C03         -3.4470    -0.2910    -0.8500 ca         1 N1V      -0.057800
     18 C04         -3.2480     0.9140    -1.5240 ca         1 N1V      -0.117000
     19 C05         -3.5070     1.0140    -2.8840 ca         1 N1V      -0.132500
     20 C06         -3.9680    -0.0870    -3.5930 ca         1 N1V      -0.128000
     21 C07         -4.1810    -1.2880    -2.9300 ca         1 N1V      -0.132500
     22 C08         -3.9240    -1.3850    -1.5690 ca         1 N1V      -0.117000
     23 C09         -1.7040    -0.5220     1.0180 c5         1 N1V       0.033400
     24 C32         -0.0290    -1.3370     2.5180 c5         1 N1V      -0.087400
     25 C33         -1.4740    -0.8680     2.4930 c5         1 N1V      -0.069400
     26 N30          1.0680    -4.2060    -0.7490 n8         1 N1V      -0.945700
     27 O27          1.4110    -2.2780     0.8200 os         1 N1V      -0.533500
     28 O29          1.9150    -4.6090     1.5430 o          1 N1V      -0.626800
     29 O31          3.3790    -3.3140    -0.0160 o          1 N1V      -0.626800
     30 S28          2.0590    -3.6770     0.4460 s6         1 N1V       1.538400
     31 H251        -3.1480     2.0270     1.5220 ha         1 N1V       0.136000
     32 H241        -3.2440     4.1190     2.7820 ha         1 N1V       0.130000
     33 H261        -0.2930    -3.2230     1.5400 h1         1 N1V       0.055700
     34 H231        -1.1590     5.2990     3.4190 ha         1 N1V       0.130000
     35 H221         1.0320     4.3310     2.7720 ha         1 N1V       0.130000
     36 H211         1.1300     2.2240     1.5260 ha         1 N1V       0.136000
     37 H183         7.2950     1.5650    -2.1890 hc         1 N1V       0.031367
     38 H181         7.6340     3.2520    -2.5650 hc         1 N1V       0.031367
     39 H182         7.2070     2.7850    -0.9220 hc         1 N1V       0.031367
     40 H172         5.2580     3.8570    -2.0880 hc         1 N1V       0.034700
     41 H171         5.3430     2.6540    -3.3550 hc         1 N1V       0.034700
     42 H162         4.8620     0.8560    -1.6880 hc         1 N1V       0.041200
     43 H161         4.7930     2.0540    -0.4120 hc         1 N1V       0.041200
     44 H151         2.8660     3.1660    -1.5450 hc         1 N1V       0.035200
     45 H152         2.9290     1.9780    -2.8320 hc         1 N1V       0.035200
     46 H111        -0.9330    -0.9260    -1.8260 hc         1 N1V       0.056700
     47 H112         0.6670    -1.3350    -1.2580 hc         1 N1V       0.056700
     48 H131         0.5210     1.3850    -2.2540 hc         1 N1V       0.049700
     49 H132         0.5010     2.5010    -0.8980 hc         1 N1V       0.049700
     50 H142         2.4520     0.1590    -1.2030 hc         1 N1V       0.044700
     51 H141         2.4540     1.3110     0.1100 hc         1 N1V       0.044700
     52 H101        -1.5950    -2.4230    -0.1130 hc         1 N1V       0.070700
     53 H012        -5.2020    -0.4810     1.1160 ha         1 N1V       0.120000
     54 H011        -4.0330    -0.6560     2.5250 ha         1 N1V       0.120000
     55 H041        -2.8930     1.7860    -0.9890 ha         1 N1V       0.135500
     56 H051        -3.3500     1.9590    -3.3890 ha         1 N1V       0.130500
     57 H061        -4.1640    -0.0070    -4.6550 ha         1 N1V       0.130000
     58 H071        -4.5470    -2.1520    -3.4710 ha         1 N1V       0.130500
     59 H081        -4.0870    -2.3260    -1.0580 ha         1 N1V       0.135500
     60 H322         0.2350    -1.8790     3.4270 hc         1 N1V       0.069200
     61 H321         0.6500    -0.4870     2.4210 hc         1 N1V       0.069200
     62 H331        -1.6620    -0.0320     3.1670 hc         1 N1V       0.055700
     63 H332        -2.1310    -1.6880     2.7990 hc         1 N1V       0.055700
     64 H301         1.0320    -5.2180    -0.8040 hn         1 N1V       0.427300
     65 H302         1.2660    -3.7980    -1.6560 hn         1 N1V       0.427300
     66 C02         -3.1610    -0.4370     0.6030 ce         1 N1V      -0.047400
     67 C15          3.1240     2.1240    -1.7640 c3         1 N1V      -0.075400
     68 C01         -4.1770    -0.5340     1.4590 c2         1 N1V      -0.206000
@<TRIPOS>BOND
     1     1     2 ar  
     2     1     7 ar  
     3     1    31 1   
     4     2     4 ar  
     5     2    32 1   
     6     3    16 1   
     7     3    24 1   
     8     3    27 1   
     9     3    33 1   
    10     4     5 ar  
    11     4    34 1   
    12     5     6 ar  
    13     5    35 1   
    14     6     7 ar  
    15     6    36 1   
    16     7     8 1   
    17     8    13 2   
    18     8    23 1   
    19     9    10 1   
    20     9    37 1   
    21     9    38 1   
    22     9    39 1   
    23    10    11 1   
    24    10    40 1   
    25    10    41 1   
    26    11    42 1   
    27    11    43 1   
    28    11    67 1   
    29    12    13 1   
    30    12    16 1   
    31    12    46 1   
    32    12    47 1   
    33    13    14 1   
    34    14    15 1   
    35    14    48 1   
    36    14    49 1   
    37    15    50 1   
    38    15    51 1   
    39    15    67 1   
    40    16    23 1   
    41    16    52 1   
    42    17    18 ar  
    43    17    22 ar  
    44    17    66 1   
    45    18    19 ar  
    46    18    55 1   
    47    19    20 ar  
    48    19    56 1   
    49    20    21 ar  
    50    20    57 1   
    51    21    22 ar  
    52    21    58 1   
    53    22    59 1   
    54    23    25 1   
    55    23    66 1   
    56    24    25 1   
    57    24    60 1   
    58    24    61 1   
    59    25    62 1   
    60    25    63 1   
    61    26    30 1   
    62    26    64 1   
    63    26    65 1   
    64    27    30 1   
    65    28    30 2   
    66    29    30 2   
    67    44    67 1   
    68    45    67 1   
    69    53    68 1   
    70    54    68 1   
    71    66    68 2   
@<TRIPOS>SUBSTRUCTURE
     1 N1V         1 TEMP              0 ****  ****    0 ROOT
