@<TRIPOS>MOLECULE
N1W
   84    86     1     0     0
SMALL
No Charge or Current Charge


@<TRIPOS>ATOM
      1 C8          -4.4290    -2.4720     0.4230 ca         1 N1W      -0.107000
      2 C5          -2.8660    -1.2260     2.3970 ca         1 N1W      -0.100000
      3 C6          -2.3670    -2.3460     1.7130 ca         1 N1W      -0.115000
      4 O6           5.4890     2.3930     3.8650 o          1 N1W      -0.721500
      5 N1          -1.5770     1.6210    -0.3740 ns         1 N1W      -0.481900
      6 N2           1.7690     0.8500     0.9990 ns         1 N1W      -0.524900
      7 N3           3.8860     1.1990     1.7520 ns         1 N1W      -0.453900
      8 C4          -4.1480    -0.7330     2.0990 ca         1 N1W      -0.107000
      9 C22          5.8250     2.4710     2.6900 c          1 N1W       0.708000
     10 O5           6.4520     3.4160     2.2340 o          1 N1W      -0.721500
     11 C14          5.3600     1.3560     1.7060 c3         1 N1W      -0.042300
     12 C15          6.0860     0.0160     1.9860 c3         1 N1W      -0.029100
     13 C16          5.6800    -1.1130     1.0420 ca         1 N1W      -0.076300
     14 C21          4.8730    -2.1740     1.5020 ca         1 N1W      -0.072000
     15 C20          4.5240    -3.2250     0.6360 ca         1 N1W      -0.178000
     16 C19          4.9750    -3.2210    -0.6920 ca         1 N1W       0.110100
     17 O4           4.6430    -4.2480    -1.5220 oh         1 N1W      -0.549100
     18 C18          5.7700    -2.1630    -1.1600 ca         1 N1W      -0.178000
     19 C17          6.1220    -1.1120    -0.2950 ca         1 N1W      -0.072000
     20 C13          3.0710     1.0910     0.6560 c          1 N1W       0.660100
     21 O3           3.4520     1.2070    -0.4960 o          1 N1W      -0.652100
     22 C12          0.6540     0.6550     0.0350 c3         1 N1W       0.046700
     23 C23          0.4440    -0.8650    -0.3170 c6         1 N1W       0.221500
     24 N6          -0.7820    -1.1150    -1.1000 nu         1 N1W      -0.950400
     25 C26         -0.8910    -2.1090    -1.9780 c2         1 N1W       0.812100
     26 N5          -2.1330    -2.0800    -2.3900 nv         1 N1W      -1.034200
     27 N4           0.0010    -2.9540    -2.2700 n2         1 N1W      -0.758900
     28 C25          1.3280    -2.8590    -1.6260 c6         1 N1W       0.139800
     29 C24          1.6390    -1.4390    -1.1150 c6         1 N1W      -0.113400
     30 C11         -0.6260     1.3390     0.5830 c          1 N1W       0.590100
     31 O2          -0.7890     1.6230     1.7650 o          1 N1W      -0.613100
     32 C10         -2.9460     2.1100    -0.1080 c3         1 N1W       0.030700
     33 C27         -3.1450     3.5790    -0.5880 c3         1 N1W      -0.060700
     34 C29         -2.2710     4.5700     0.2170 c3         1 N1W      -0.093100
     35 C28         -2.9310     3.7550    -2.1110 c3         1 N1W      -0.093100
     36 O1          -3.6350     0.2830    -1.5820 o          1 N1W      -0.630100
     37 N           -5.2450     1.2120    -0.2610 ns         1 N1W      -0.493900
     38 C1          -6.2830     0.1910    -0.4550 c3         1 N1W       0.110700
     39 C           -7.6630     0.8410    -0.7450 c3         1 N1W       0.147600
     40 O           -8.0320     1.7710     0.2900 oh         1 N1W      -0.666000
     41 C3          -4.9370    -1.3500     1.1060 ca         1 N1W      -0.091300
     42 C7          -3.1510    -2.9700     0.7280 ca         1 N1W      -0.100000
     43 H1          -5.0210    -2.9530    -0.3520 ha         1 N1W       0.106000
     44 H2          -2.2600    -0.7380     3.1580 ha         1 N1W       0.122000
     45 H3          -1.3760    -2.7300     1.9450 ha         1 N1W       0.116000
     46 H4          -1.3710     1.2900    -1.3110 hn         1 N1W       0.331500
     47 H5          -6.7310    -0.2690     1.6230 hc         1 N1W       0.053200
     48 H6          -7.0070    -1.6060     0.5270 hc         1 N1W       0.053200
     49 H7           1.5500     0.8190     1.9870 hn         1 N1W       0.314500
     50 H8           3.4490     1.1200     2.6610 hn         1 N1W       0.279500
     51 H9          -4.5240     0.1380     2.6310 ha         1 N1W       0.106000
     52 H11          5.6420     1.6900     0.7000 h1         1 N1W       0.071700
     53 H12          7.1680     0.1820     1.9130 hc         1 N1W       0.056700
     54 H13          5.9000    -0.2790     3.0270 hc         1 N1W       0.056700
     55 H14          4.5220    -2.1870     2.5320 ha         1 N1W       0.112500
     56 H15          3.9050    -4.0420     0.9970 ha         1 N1W       0.106000
     57 H16          5.0690    -4.0920    -2.3920 ho         1 N1W       0.453000
     58 H17          6.1220    -2.1510    -2.1890 ha         1 N1W       0.106000
     59 H18          6.7430    -0.2970    -0.6620 ha         1 N1W       0.112500
     60 H19          0.8980     1.1810    -0.8960 h1         1 N1W       0.105700
     61 H20          0.3700    -1.4220     0.6290 h1         1 N1W       0.036700
     62 H21         -1.6610    -1.0150    -0.6050 hn         1 N1W       0.492000
     63 H22         -2.5500    -1.1610    -2.2950 hn         1 N1W       0.468000
     64 H23         -2.2370    -2.5080    -3.2970 hn         1 N1W       0.468000
     65 H24          1.3650    -3.5740    -0.7900 h1         1 N1W       0.038200
     66 H25          2.0980    -3.1550    -2.3520 h1         1 N1W       0.038200
     67 H26          1.8570    -0.7900    -1.9740 hc         1 N1W       0.067700
     68 H27          2.5450    -1.4590    -0.4970 hc         1 N1W       0.067700
     69 H28         -3.1320     2.0740     0.9730 h1         1 N1W       0.094700
     70 H29         -4.1880     3.8470    -0.3800 hc         1 N1W       0.036700
     71 H30         -1.2040     4.3970     0.0320 hc         1 N1W       0.042533
     72 H31         -2.5020     5.6050    -0.0640 hc         1 N1W       0.042533
     73 H32         -2.4540     4.4630     1.2930 hc         1 N1W       0.042533
     74 H33         -3.5980     3.0990    -2.6830 hc         1 N1W       0.042533
     75 H34         -3.1430     4.7880    -2.4120 hc         1 N1W       0.042533
     76 H35         -1.8960     3.5260    -2.3960 hc         1 N1W       0.042533
     77 H36         -5.4410     1.9530     0.4010 hn         1 N1W       0.324500
     78 H37         -6.0210    -0.4000    -1.3430 h1         1 N1W       0.082700
     79 H38         -7.6070     1.3620    -1.7110 h1         1 N1W       0.027200
     80 H39         -8.4200     0.0520    -0.8400 h1         1 N1W       0.027200
     81 H40         -8.9050     2.1480     0.0400 ho         1 N1W       0.443000
     82 H41         -2.7630    -3.8340     0.1930 ha         1 N1W       0.122000
     83 C2          -6.3130    -0.7870     0.7520 c3         1 N1W      -0.043100
     84 C9          -3.9590     1.1200    -0.7440 c          1 N1W       0.589100
@<TRIPOS>BOND
     1     1    41 ar  
     2     1    42 ar  
     3     1    43 1   
     4     2     3 ar  
     5     2     8 ar  
     6     2    44 1   
     7     3    42 ar  
     8     3    45 1   
     9     4     9 1   
    10     5    30 1   
    11     5    32 1   
    12     5    46 1   
    13     6    20 1   
    14     6    22 1   
    15     6    49 1   
    16     7    11 1   
    17     7    20 1   
    18     7    50 1   
    19     8    41 ar  
    20     8    51 1   
    21     9    10 1   
    22     9    11 1   
    23    11    12 1   
    24    11    52 1   
    25    12    13 1   
    26    12    53 1   
    27    12    54 1   
    28    13    14 ar  
    29    13    19 ar  
    30    14    15 ar  
    31    14    55 1   
    32    15    16 ar  
    33    15    56 1   
    34    16    17 1   
    35    16    18 ar  
    36    17    57 1   
    37    18    19 ar  
    38    18    58 1   
    39    19    59 1   
    40    20    21 2   
    41    22    23 1   
    42    22    30 1   
    43    22    60 1   
    44    23    24 1   
    45    23    29 1   
    46    23    61 1   
    47    24    25 1   
    48    24    62 1   
    49    25    26 1   
    50    25    27 2   
    51    26    63 1   
    52    26    64 1   
    53    27    28 1   
    54    28    29 1   
    55    28    65 1   
    56    28    66 1   
    57    29    67 1   
    58    29    68 1   
    59    30    31 2   
    60    32    33 1   
    61    32    69 1   
    62    32    84 1   
    63    33    34 1   
    64    33    35 1   
    65    33    70 1   
    66    34    71 1   
    67    34    72 1   
    68    34    73 1   
    69    35    74 1   
    70    35    75 1   
    71    35    76 1   
    72    36    84 2   
    73    37    38 1   
    74    37    77 1   
    75    37    84 1   
    76    38    39 1   
    77    38    78 1   
    78    38    83 1   
    79    39    40 1   
    80    39    79 1   
    81    39    80 1   
    82    40    81 1   
    83    41    83 1   
    84    42    82 1   
    85    47    83 1   
    86    48    83 1   
@<TRIPOS>SUBSTRUCTURE
     1 N1W         1 TEMP              0 ****  ****    0 ROOT
