@<TRIPOS>MOLECULE
N1W
   84    86     1     0     0
SMALL
bcc


@<TRIPOS>ATOM
      1 C8          -5.3760    -2.2490    -0.0250 ca         1 N1W      -0.125000
      2 C5          -3.2140    -1.9850     1.6850 ca         1 N1W      -0.118000
      3 C6          -3.2190    -2.9940     0.7330 ca         1 N1W      -0.133000
      4 O6           3.2390     2.9890     1.9760 o          1 N1W      -0.826800
      5 N1          -1.5240     1.5340    -0.3310 ns         1 N1W      -0.548900
      6 N2           1.5130    -0.0690     0.5290 ns         1 N1W      -0.591900
      7 N3           3.6540     0.4520     1.1430 ns         1 N1W      -0.520900
      8 C4          -4.2920    -1.1130     1.7810 ca         1 N1W      -0.125000
      9 C22          4.4110     2.7870     1.6180 c          1 N1W       0.918600
     10 O5           5.3470     3.6120     1.5920 o          1 N1W      -0.826800
     11 C14          4.7790     1.3550     1.1440 c3         1 N1W      -0.042300
     12 C15          5.9050     0.7660     2.0030 c3         1 N1W      -0.029100
     13 C16          6.4140    -0.5490     1.4840 ca         1 N1W      -0.076300
     14 C21          5.8750    -1.7630     1.9050 ca         1 N1W      -0.090000
     15 C20          6.3200    -2.9740     1.3970 ca         1 N1W      -0.196000
     16 C19          7.3310    -2.9960     0.4400 ca         1 N1W       0.110100
     17 O4           7.7360    -4.1980    -0.0260 oh         1 N1W      -0.510100
     18 C18          7.8840    -1.7950     0.0070 ca         1 N1W      -0.196000
     19 C17          7.4240    -0.5930     0.5280 ca         1 N1W      -0.090000
     20 C13          2.6720     0.5790     0.2120 c          1 N1W       0.794100
     21 O3           2.8320     1.1630    -0.8540 o          1 N1W      -0.652100
     22 C12          0.3400    -0.0120    -0.2930 c3         1 N1W       0.046700
     23 C23         -0.1360    -1.4340    -0.6630 c6         1 N1W       0.221500
     24 N6          -1.2990    -1.3590    -1.5230 nu         1 N1W      -0.895200
     25 C26         -1.5680    -2.3670    -2.4200 c2         1 N1W       0.812100
     26 N5          -2.7870    -2.2410    -3.0360 nv         1 N1W      -0.923800
     27 N4          -0.8090    -3.3590    -2.7040 n2         1 N1W      -0.758900
     28 C25          0.4020    -3.5050    -1.9320 c6         1 N1W       0.139800
     29 C24          0.9530    -2.1890    -1.4070 c6         1 N1W      -0.113400
     30 C11         -0.7630     0.7430     0.4450 c          1 N1W       0.657100
     31 O2          -0.9290     0.5980     1.6450 o          1 N1W      -0.613100
     32 C10         -2.7430     2.1560     0.1140 c3         1 N1W       0.030700
     33 C27         -2.8050     3.6490    -0.2650 c3         1 N1W      -0.060700
     34 C29         -1.7040     4.4230     0.4490 c3         1 N1W      -0.093100
     35 C28         -2.7520     3.8830    -1.7720 c3         1 N1W      -0.093100
     36 O1          -3.8410     0.6510    -1.4160 o          1 N1W      -0.630100
     37 N           -5.0880     1.5990     0.2180 ns         1 N1W      -0.560900
     38 C1          -6.3250     0.8920    -0.0390 c3         1 N1W       0.110700
     39 C           -7.4890     1.8670    -0.0540 c3         1 N1W       0.124400
     40 O           -7.5830     2.4850     1.2100 oh         1 N1W      -0.603800
     41 C3          -5.3860    -1.2320     0.9280 ca         1 N1W      -0.091300
     42 C7          -4.3040    -3.1230    -0.1250 ca         1 N1W      -0.118000
     43 H1          -6.2160    -2.3530    -0.7030 ha         1 N1W       0.124000
     44 H2          -2.3690    -1.8690     2.3500 ha         1 N1W       0.140000
     45 H3          -2.3800    -3.6730     0.6540 ha         1 N1W       0.134000
     46 H4          -1.3350     1.5380    -1.3220 hn         1 N1W       0.331500
     47 H5          -6.6070     0.1750     1.9820 hc         1 N1W       0.053200
     48 H6          -7.4650    -0.7420     0.7550 hc         1 N1W       0.053200
     49 H7           1.3920    -0.4250     1.4640 hn         1 N1W       0.314500
     50 H8           3.3620     0.1450     2.0590 hn         1 N1W       0.279500
     51 H9          -4.2770    -0.3270     2.5270 ha         1 N1W       0.124000
     52 H11          5.1520     1.4310     0.1180 h1         1 N1W       0.071700
     53 H12          6.7150     1.4950     2.0340 hc         1 N1W       0.056700
     54 H13          5.5510     0.6510     3.0330 hc         1 N1W       0.056700
     55 H14          5.0910    -1.7700     2.6530 ha         1 N1W       0.130500
     56 H15          5.8860    -3.9040     1.7420 ha         1 N1W       0.124000
     57 H16          8.4430    -4.0850    -0.6700 ho         1 N1W       0.414000
     58 H17          8.6750    -1.7930    -0.7350 ha         1 N1W       0.124000
     59 H18          7.8720     0.3310     0.1800 ha         1 N1W       0.130500
     60 H19          0.6000     0.5040    -1.2190 h1         1 N1W       0.105700
     61 H20         -0.3740    -1.9670     0.2680 h1         1 N1W       0.036700
     62 H21         -2.1210    -0.9090    -1.1440 hn         1 N1W       0.436800
     63 H22         -3.1720    -1.3140    -3.1070 hn         1 N1W       0.412800
     64 H23         -2.8890    -2.7880    -3.8740 hn         1 N1W       0.412800
     65 H24          0.2410    -4.1930    -1.0900 h1         1 N1W       0.038200
     66 H25          1.1610    -3.9870    -2.5550 h1         1 N1W       0.038200
     67 H26          1.3060    -1.5790    -2.2440 hc         1 N1W       0.067700
     68 H27          1.8040    -2.3590    -0.7480 hc         1 N1W       0.067700
     69 H28         -2.7610     2.0860     1.2030 h1         1 N1W       0.094700
     70 H29         -3.7670     4.0220     0.1020 hc         1 N1W       0.036700
     71 H30         -0.7150     4.1030     0.1170 hc         1 N1W       0.042533
     72 H31         -1.7920     5.4900     0.2450 hc         1 N1W       0.042533
     73 H32         -1.7560     4.2840     1.5300 hc         1 N1W       0.042533
     74 H33         -3.5300     3.3410    -2.3090 hc         1 N1W       0.042533
     75 H34         -2.8880     4.9430    -1.9880 hc         1 N1W       0.042533
     76 H35         -1.7860     3.5950    -2.1930 hc         1 N1W       0.042533
     77 H36         -5.0650     2.1850     1.0390 hn         1 N1W       0.324500
     78 H37         -6.2560     0.4600    -1.0380 h1         1 N1W       0.082700
     79 H38         -7.3200     2.6000    -0.8510 h1         1 N1W       0.027200
     80 H39         -8.4030     1.3150    -0.3070 h1         1 N1W       0.027200
     81 H40         -8.2230     3.2000     1.1530 ho         1 N1W       0.404000
     82 H41         -4.3060    -3.8950    -0.8810 ha         1 N1W       0.140000
     83 C2          -6.5170    -0.2460     0.9780 c3         1 N1W      -0.043100
     84 C9          -3.9420     1.3810    -0.4400 c          1 N1W       0.656100
@<TRIPOS>BOND
     1     1    41 ar  
     2     1    42 ar  
     3     1    43 1   
     4     2     3 ar  
     5     2     8 ar  
     6     2    44 1   
     7     3    42 ar  
     8     3    45 1   
     9     4     9 1   
    10     5    30 1   
    11     5    32 1   
    12     5    46 1   
    13     6    20 1   
    14     6    22 1   
    15     6    49 1   
    16     7    11 1   
    17     7    20 1   
    18     7    50 1   
    19     8    41 ar  
    20     8    51 1   
    21     9    10 1   
    22     9    11 1   
    23    11    12 1   
    24    11    52 1   
    25    12    13 1   
    26    12    53 1   
    27    12    54 1   
    28    13    14 ar  
    29    13    19 ar  
    30    14    15 ar  
    31    14    55 1   
    32    15    16 ar  
    33    15    56 1   
    34    16    17 1   
    35    16    18 ar  
    36    17    57 1   
    37    18    19 ar  
    38    18    58 1   
    39    19    59 1   
    40    20    21 2   
    41    22    23 1   
    42    22    30 1   
    43    22    60 1   
    44    23    24 1   
    45    23    29 1   
    46    23    61 1   
    47    24    25 1   
    48    24    62 1   
    49    25    26 1   
    50    25    27 2   
    51    26    63 1   
    52    26    64 1   
    53    27    28 1   
    54    28    29 1   
    55    28    65 1   
    56    28    66 1   
    57    29    67 1   
    58    29    68 1   
    59    30    31 2   
    60    32    33 1   
    61    32    69 1   
    62    32    84 1   
    63    33    34 1   
    64    33    35 1   
    65    33    70 1   
    66    34    71 1   
    67    34    72 1   
    68    34    73 1   
    69    35    74 1   
    70    35    75 1   
    71    35    76 1   
    72    36    84 2   
    73    37    38 1   
    74    37    77 1   
    75    37    84 1   
    76    38    39 1   
    77    38    78 1   
    78    38    83 1   
    79    39    40 1   
    80    39    79 1   
    81    39    80 1   
    82    40    81 1   
    83    41    83 1   
    84    42    82 1   
    85    47    83 1   
    86    48    83 1   
@<TRIPOS>SUBSTRUCTURE
     1 N1W         1 TEMP              0 ****  ****    0 ROOT
