@<TRIPOS>MOLECULE
N1X
   26    27     1     0     0
SMALL
No Charge or Current Charge


@<TRIPOS>ATOM
      1 C1           9.2670    -8.8510   -15.8090 c3         1 N1X      -0.122400
      2 C2           9.0600    -8.4450   -17.2380 cc         1 N1X       0.143300
      3 C4           8.6680    -8.7650   -19.3870 cc         1 N1X       0.126300
      4 C5           8.8180    -7.4160   -19.2060 cd         1 N1X      -0.167000
      5 C6           9.0690    -7.2130   -17.8330 cd         1 N1X      -0.192000
      6 C7           8.3890    -9.5200   -20.6690 c6         1 N1X       0.151000
      7 C8           9.7140   -10.0320   -21.2910 c6         1 N1X      -0.106400
      8 C9           9.4280   -10.9180   -22.5380 c6         1 N1X      -0.074400
      9 C10          8.1050   -10.5140   -23.2510 c6         1 N1X      -0.116400
     10 C11          7.8120    -9.0130   -23.0290 c6         1 N1X       0.164600
     11 O3           8.8130    -9.4170   -18.1810 os         1 N1X      -0.231000
     12 O12          7.6420    -8.7030   -21.6190 os         1 N1X      -0.456000
     13 H1          10.1270    -9.5250   -15.7180 hc         1 N1X       0.053367
     14 H2           9.4530    -7.9750   -15.1760 hc         1 N1X       0.053367
     15 H3           8.3830    -9.3700   -15.4210 hc         1 N1X       0.053367
     16 H4           8.7550    -6.6560   -19.9780 ha         1 N1X       0.137000
     17 H5           9.2380    -6.2640   -17.3360 ha         1 N1X       0.138000
     18 H6           7.7700   -10.3970   -20.4290 h1         1 N1X       0.055700
     19 H7          10.2890   -10.6050   -20.5500 hc         1 N1X       0.055200
     20 H8          10.3400    -9.1740   -21.5730 hc         1 N1X       0.055200
     21 H9           9.3700   -11.9750   -22.2430 hc         1 N1X       0.044700
     22 H10         10.2720   -10.8400   -23.2370 hc         1 N1X       0.044700
     23 H11          8.1710   -10.7350   -24.3240 hc         1 N1X       0.051200
     24 H12          7.2680   -11.1090   -22.8610 hc         1 N1X       0.051200
     25 H13          8.6450    -8.4140   -23.4250 h1         1 N1X       0.043700
     26 H14          6.9020    -8.7170   -23.5690 h1         1 N1X       0.043700
@<TRIPOS>BOND
     1     1     2 1   
     2     1    13 1   
     3     1    14 1   
     4     1    15 1   
     5     2     5 2   
     6     2    11 1   
     7     3     4 2   
     8     3     6 1   
     9     3    11 1   
    10     4     5 1   
    11     4    16 1   
    12     5    17 1   
    13     6     7 1   
    14     6    12 1   
    15     6    18 1   
    16     7     8 1   
    17     7    19 1   
    18     7    20 1   
    19     8     9 1   
    20     8    21 1   
    21     8    22 1   
    22     9    10 1   
    23     9    23 1   
    24     9    24 1   
    25    10    12 1   
    26    10    25 1   
    27    10    26 1   
@<TRIPOS>SUBSTRUCTURE
     1 N1X         1 TEMP              0 ****  ****    0 ROOT
