@<TRIPOS>MOLECULE
N1X
   26    27     1     0     0
SMALL
bcc


@<TRIPOS>ATOM
      1 C1           8.2960    -8.5260   -15.9450 c3         1 N1X      -0.122400
      2 C2           8.9090    -8.3960   -17.2870 cc         1 N1X       0.253000
      3 C4           9.1590    -8.9440   -19.3970 cc         1 N1X       0.236000
      4 C5          10.0430    -7.9470   -19.1550 cd         1 N1X      -0.250300
      5 C6           9.8820    -7.5910   -17.7810 cd         1 N1X      -0.275300
      6 C7           8.8070    -9.7290   -20.6110 c6         1 N1X       0.127800
      7 C8           9.8630    -9.6010   -21.6990 c6         1 N1X      -0.106400
      8 C9           9.4960   -10.4700   -22.9100 c6         1 N1X      -0.074400
      9 C10          7.9730   -10.5950   -23.0590 c6         1 N1X      -0.116400
     10 C11          7.2830    -9.3920   -22.4460 c6         1 N1X       0.141400
     11 O3           8.4680    -9.2200   -18.2640 os         1 N1X      -0.319800
     12 O12          7.5260    -9.2880   -21.0520 os         1 N1X      -0.409600
     13 H1           8.4380    -9.5250   -15.5290 hc         1 N1X       0.053367
     14 H2           8.7540    -7.8110   -15.2640 hc         1 N1X       0.053367
     15 H3           7.2220    -8.3280   -15.9660 hc         1 N1X       0.053367
     16 H4          10.7320    -7.5140   -19.8620 ha         1 N1X       0.155000
     17 H5          10.4220    -6.8370   -17.2310 ha         1 N1X       0.156000
     18 H6           8.7400   -10.7910   -20.3260 h1         1 N1X       0.055700
     19 H7          10.8340    -9.8920   -21.2980 hc         1 N1X       0.055200
     20 H8           9.9490    -8.5520   -21.9950 hc         1 N1X       0.055200
     21 H9           9.9360   -11.4620   -22.8040 hc         1 N1X       0.044700
     22 H10          9.9300   -10.0300   -23.8090 hc         1 N1X       0.044700
     23 H11          7.6870   -10.6820   -24.1080 hc         1 N1X       0.051200
     24 H12          7.6140   -11.5010   -22.5640 hc         1 N1X       0.051200
     25 H13          7.6080    -8.4790   -22.9620 h1         1 N1X       0.043700
     26 H14          6.2000    -9.4590   -22.5680 h1         1 N1X       0.043700
@<TRIPOS>BOND
     1     1     2 1   
     2     1    13 1   
     3     1    14 1   
     4     1    15 1   
     5     2     5 2   
     6     2    11 1   
     7     3     4 2   
     8     3     6 1   
     9     3    11 1   
    10     4     5 1   
    11     4    16 1   
    12     5    17 1   
    13     6     7 1   
    14     6    12 1   
    15     6    18 1   
    16     7     8 1   
    17     7    19 1   
    18     7    20 1   
    19     8     9 1   
    20     8    21 1   
    21     8    22 1   
    22     9    10 1   
    23     9    23 1   
    24     9    24 1   
    25    10    12 1   
    26    10    25 1   
    27    10    26 1   
@<TRIPOS>SUBSTRUCTURE
     1 N1X         1 TEMP              0 ****  ****    0 ROOT
