@<TRIPOS>MOLECULE
N1Y
   28    29     1     0     0
SMALL
bcc


@<TRIPOS>ATOM
      1 CL          -4.9370    -0.5370     0.6190 cl         1 N1Y      -0.158000
      2 C1          -3.3760    -0.1050    -0.0040 ca         1 N1Y       0.515300
      3 N1          -3.2700     1.0800    -0.5480 nb         1 N1Y      -0.658000
      4 C2          -2.0820     1.4320    -1.0310 ca         1 N1Y       0.428200
      5 C3          -0.9620     0.6150    -0.9930 ca         1 N1Y      -0.255600
      6 C4           0.3550     1.0950    -1.5450 c3         1 N1Y       0.286100
      7 N2           1.3490     1.3060    -0.5210 nh         1 N1Y      -0.684400
      8 C5          -1.1100    -0.6410    -0.4070 ca         1 N1Y      -0.066000
      9 C6          -2.3370    -1.0190     0.1020 ca         1 N1Y      -0.230300
     10 C7           2.2410     0.4010    -0.0700 c2         1 N1Y       0.472000
     11 C8           2.5000    -0.8070    -0.7190 c2         1 N1Y      -0.492100
     12 N3           2.8010     0.8590     1.0530 nu         1 N1Y      -0.751000
     13 C9           2.4390     2.2440     1.2950 c5         1 N1Y       0.193800
     14 C10          1.1740     2.3730     0.4560 c5         1 N1Y       0.187800
     15 N4           3.4590    -1.6910    -0.3040 no         1 N1Y       0.328100
     16 O1           4.1380    -1.4620     0.7040 o          1 N1Y      -0.285000
     17 O2           3.6240    -2.7220    -0.9550 o          1 N1Y      -0.285000
     18 H1          -2.0220     2.4190    -1.4760 h4         1 N1Y       0.023100
     19 H2           0.7420     0.4010    -2.2910 h1         1 N1Y       0.074700
     20 H3           0.2090     2.0430    -2.0670 h1         1 N1Y       0.074700
     21 H4          -0.2770    -1.3300    -0.3480 ha         1 N1Y       0.159000
     22 H5          -2.4840    -1.9870     0.5600 ha         1 N1Y       0.166000
     23 H6           1.9730    -1.0910    -1.6130 h4         1 N1Y       0.184000
     24 H8           2.2620     2.4280     2.3520 h1         1 N1Y       0.067700
     25 H9           1.0880     3.3390    -0.0380 h1         1 N1Y       0.067200
     26 H7           3.6390     0.4330     1.4130 hn         1 N1Y       0.501800
     27 H10          3.2270     2.9170     0.9490 h1         1 N1Y       0.067700
     28 H11          0.2720     2.2080     1.0540 h1         1 N1Y       0.067200
@<TRIPOS>BOND
     1     1     2 1   
     2     2     3 ar  
     3     2     9 ar  
     4     3     4 ar  
     5     4     5 ar  
     6     4    18 1   
     7     5     6 1   
     8     5     8 ar  
     9     6     7 1   
    10     6    19 1   
    11     6    20 1   
    12     7    10 1   
    13     7    14 1   
    14     8     9 ar  
    15     8    21 1   
    16     9    22 1   
    17    10    11 2   
    18    10    12 1   
    19    11    15 1   
    20    11    23 1   
    21    12    13 1   
    22    12    26 1   
    23    13    14 1   
    24    13    24 1   
    25    13    27 1   
    26    14    25 1   
    27    14    28 1   
    28    15    16 1   
    29    15    17 1   
@<TRIPOS>SUBSTRUCTURE
     1 N1Y         1 TEMP              0 ****  ****    0 ROOT
