@<TRIPOS>MOLECULE
N1Y
   28    29     1     0     0
SMALL
No Charge or Current Charge


@<TRIPOS>ATOM
      1 Cl          -4.6100    -1.6650     0.6250 cl         1 N1Y      -0.158000
      2 C1          -3.1860    -0.8570    -0.0150 ca         1 N1Y       0.450000
      3 N1          -2.8050     0.2730     0.6190 nb         1 N1Y      -0.658000
      4 C2          -1.7090     0.9140     0.1490 ca         1 N1Y       0.362900
      5 C3          -0.9660     0.4610    -0.9580 ca         1 N1Y      -0.190300
      6 C4           0.2510     1.2400    -1.4280 c3         1 N1Y       0.286100
      7 N2           1.2120     1.5280    -0.3470 nh         1 N1Y      -0.684400
      8 C5          -1.3770    -0.7160    -1.6140 ca         1 N1Y      -0.048000
      9 C6          -2.5100    -1.3850    -1.1260 ca         1 N1Y      -0.147000
     10 C7           1.9500     0.6090     0.3420 c2         1 N1Y       0.472000
     11 C8           1.9610    -0.6920     0.0960 c2         1 N1Y      -0.542100
     12 N3           2.7330     1.2620     1.2470 nu         1 N1Y      -0.806200
     13 C9           3.0120     2.5980     0.6590 c5         1 N1Y       0.193800
     14 C10          1.6260     2.8980     0.0250 c5         1 N1Y       0.187800
     15 N4           2.7520    -1.6990     0.7550 no         1 N1Y       0.708100
     16 O1           3.7210    -1.3440     1.4350 o          1 N1Y      -0.475000
     17 O2           2.4860    -2.8740     0.4960 o          1 N1Y      -0.475000
     18 H1          -1.4230     1.8230     0.6770 h4         1 N1Y       0.023100
     19 H2           0.7590     0.6860    -2.2290 h1         1 N1Y       0.074700
     20 H3          -0.0990     2.1820    -1.8720 h1         1 N1Y       0.074700
     21 H4          -0.8350    -1.1030    -2.4760 ha         1 N1Y       0.141000
     22 H5          -2.8650    -2.2970    -1.5960 ha         1 N1Y       0.148000
     23 H6           1.3250    -1.1400    -0.6540 h4         1 N1Y       0.234000
     24 H8           3.3050     3.3550     1.3990 h1         1 N1Y       0.067700
     25 H9           1.6890     3.5850    -0.8300 h1         1 N1Y       0.067200
     26 H7           3.5020     0.6820     1.5920 hn         1 N1Y       0.557000
     27 H10          3.7910     2.5510    -0.1160 h1         1 N1Y       0.067700
     28 H11          0.9430     3.3250     0.7730 h1         1 N1Y       0.067200
@<TRIPOS>BOND
     1     1     2 1   
     2     2     3 ar  
     3     2     9 ar  
     4     3     4 ar  
     5     4     5 ar  
     6     4    18 1   
     7     5     6 1   
     8     5     8 ar  
     9     6     7 1   
    10     6    19 1   
    11     6    20 1   
    12     7    10 1   
    13     7    14 1   
    14     8     9 ar  
    15     8    21 1   
    16     9    22 1   
    17    10    11 2   
    18    10    12 1   
    19    11    15 1   
    20    11    23 1   
    21    12    13 1   
    22    12    26 1   
    23    13    14 1   
    24    13    24 1   
    25    13    27 1   
    26    14    25 1   
    27    14    28 1   
    28    15    16 1   
    29    15    17 1   
@<TRIPOS>SUBSTRUCTURE
     1 N1Y         1 TEMP              0 ****  ****    0 ROOT
