@<TRIPOS>MOLECULE
N20
   46    49     1     0     0
SMALL
abcg2


@<TRIPOS>ATOM
      1 C2           1.3730     0.0420    -1.9500 ca         1 N20       0.443900
      2 C8          -2.0710     0.0260    -4.5870 cc         1 N20       0.385700
      3 C10         -1.3700    -0.0700     0.9860 c3         1 N20       0.170600
      4 C11         -2.6050    -0.2950     1.8350 c6         1 N20      -0.067700
      5 C12         -2.1780    -0.4900     3.2910 c6         1 N20      -0.070900
      6 C13         -3.3780    -0.7300     4.2010 c6         1 N20      -0.072900
      7 C14         -4.3980     0.3980     4.0850 c6         1 N20      -0.075400
      8 C15         -4.8250     0.6050     2.6360 c6         1 N20      -0.072900
      9 C16         -3.6230     0.8410     1.7260 c6         1 N20      -0.070900
     10 C19          5.0850     0.7230     1.1260 ca         1 N20      -0.154500
     11 C20          4.5140     0.0670     2.2110 ca         1 N20       0.119100
     12 C21          3.3070    -0.6020     2.0330 ca         1 N20      -0.154500
     13 C22          2.6800    -0.6190     0.7980 ca         1 N20      -0.098500
     14 N1           0.4420     0.0250    -0.9860 nb         1 N20      -0.349000
     15 C6          -0.8300     0.0060    -1.3170 ca         1 N20       0.460300
     16 O6          -1.7650    -0.0270    -0.3900 os         1 N20      -0.430300
     17 C5          -1.2020     0.0180    -2.6660 ca         1 N20      -0.099600
     18 N7          -2.4040     0.0050    -3.3310 nd         1 N20      -0.509100
     19 N9          -0.7200     0.0530    -4.7890 na         1 N20      -0.419300
     20 C4          -0.1360     0.0460    -3.5630 ca         1 N20       0.157500
     21 N3           1.1550     0.0560    -3.2630 nb         1 N20      -0.283000
     22 N2           2.6810     0.0520    -1.5760 nu         1 N20      -0.932900
     23 C17          3.2350     0.0560    -0.2900 ca         1 N20       0.278000
     24 C18          4.4450     0.7230    -0.1040 ca         1 N20      -0.098500
     25 H23          5.9010     0.5480     3.4360 ho         1 N20       0.463000
     26 H8          -2.7610     0.0250    -5.4170 h5         1 N20       0.066800
     27 H101        -0.6500    -0.8780     1.1360 h1         1 N20       0.052700
     28 H102        -0.8780     0.8700     1.2580 h1         1 N20       0.052700
     29 H11         -3.0820    -1.2250     1.5010 hc         1 N20       0.061700
     30 H121        -1.4770    -1.3260     3.3670 hc         1 N20       0.043700
     31 H122        -1.6390     0.4010     3.6330 hc         1 N20       0.043700
     32 H131        -3.8520    -1.6790     3.9280 hc         1 N20       0.039950
     33 H132        -3.0440    -0.8370     5.2350 hc         1 N20       0.039950
     34 H141        -5.2680     0.1890     4.7130 hc         1 N20       0.038200
     35 H142        -3.9540     1.3250     4.4650 hc         1 N20       0.038200
     36 H151        -5.3720    -0.2790     2.2900 hc         1 N20       0.039950
     37 H152        -5.5180     1.4460     2.5600 hc         1 N20       0.039950
     38 H161        -3.1370     1.7830     2.0070 hc         1 N20       0.043700
     39 H162        -3.9570     0.9580     0.6930 hc         1 N20       0.043700
     40 H19          6.0260     1.2500     1.2340 ha         1 N20       0.121000
     41 H21          2.8560    -1.1290     2.8650 ha         1 N20       0.121000
     42 H22          1.7540    -1.1630     0.6920 ha         1 N20       0.125000
     43 H9          -0.2520     0.0670    -5.6820 hn         1 N20       0.368000
     44 H2           3.3250     0.1920    -2.3380 hn         1 N20       0.510000
     45 H18          4.8990     1.2540    -0.9320 ha         1 N20       0.125000
     46 O23          5.0800     0.0450     3.4380 oh         1 N20      -0.534100
@<TRIPOS>BOND
     1     1    14 ar  
     2     1    21 ar  
     3     1    22 1   
     4     2    18 2   
     5     2    19 1   
     6     2    26 1   
     7     3     4 1   
     8     3    16 1   
     9     3    27 1   
    10     3    28 1   
    11     4     5 1   
    12     4     9 1   
    13     4    29 1   
    14     5     6 1   
    15     5    30 1   
    16     5    31 1   
    17     6     7 1   
    18     6    32 1   
    19     6    33 1   
    20     7     8 1   
    21     7    34 1   
    22     7    35 1   
    23     8     9 1   
    24     8    36 1   
    25     8    37 1   
    26     9    38 1   
    27     9    39 1   
    28    10    11 ar  
    29    10    24 ar  
    30    10    40 1   
    31    11    12 ar  
    32    11    46 1   
    33    12    13 ar  
    34    12    41 1   
    35    13    23 ar  
    36    13    42 1   
    37    14    15 ar  
    38    15    16 1   
    39    15    17 ar  
    40    17    18 1   
    41    17    20 ar  
    42    19    20 1   
    43    19    43 1   
    44    20    21 ar  
    45    22    23 1   
    46    22    44 1   
    47    23    24 ar  
    48    24    45 1   
    49    25    46 1   
@<TRIPOS>SUBSTRUCTURE
     1 N20         1 TEMP              0 ****  ****    0 ROOT
