@<TRIPOS>MOLECULE
N20
   46    49     1     0     0
SMALL
No Charge or Current Charge


@<TRIPOS>ATOM
      1 C2           1.4110     0.1190    -1.8680 ca         1 N20       0.443900
      2 C8          -2.1140    -0.0430    -4.5470 cc         1 N20       0.385700
      3 C10         -1.4770    -0.2380     1.1010 c3         1 N20       0.170600
      4 C11         -2.7930    -0.3700     1.9200 c6         1 N20      -0.067700
      5 C12         -2.4890    -0.5680     3.4320 c6         1 N20      -0.070900
      6 C13         -3.7910    -0.7110     4.2600 c6         1 N20      -0.072900
      7 C14         -4.7270     0.5020     4.0470 c6         1 N20      -0.075400
      8 C15         -5.0390     0.7070     2.5450 c6         1 N20      -0.072900
      9 C16         -3.7390     0.8490     1.7140 c6         1 N20      -0.070900
     10 C19          5.4480     0.7800     0.9710 ca         1 N20      -0.154500
     11 C20          4.9990     0.0010     2.0490 ca         1 N20       0.119100
     12 C21          3.7950    -0.7100     1.9440 ca         1 N20      -0.154500
     13 C22          3.0320    -0.6370     0.7620 ca         1 N20      -0.098500
     14 N1           0.5040     0.0110    -0.8800 nb         1 N20      -0.349000
     15 C6          -0.7930    -0.0810    -1.2500 ca         1 N20       0.460300
     16 O6          -1.7910    -0.2030    -0.3040 os         1 N20      -0.430300
     17 C5          -1.1350    -0.0500    -2.6220 ca         1 N20      -0.099600
     18 N7          -2.3940    -0.1270    -3.2340 nd         1 N20      -0.509100
     19 N9          -0.7420     0.0810    -4.7500 na         1 N20      -0.419300
     20 C4          -0.1260     0.0760    -3.5390 ca         1 N20       0.157500
     21 N3           1.1660     0.1680    -3.1910 nb         1 N20      -0.283000
     22 N2           2.7450     0.2490    -1.5220 nu         1 N20      -0.932900
     23 C17          3.4650     0.1560    -0.3220 ca         1 N20       0.278000
     24 C18          4.6840     0.8520    -0.2100 ca         1 N20      -0.098500
     25 H23          6.5350     0.4760     3.0930 ho         1 N20       0.463000
     26 H8          -2.8280    -0.0650    -5.3620 h5         1 N20       0.066800
     27 H101        -0.8290    -1.0960     1.3270 h1         1 N20       0.052700
     28 H102        -0.9530     0.6780     1.4080 h1         1 N20       0.052700
     29 H11         -3.2960    -1.2740     1.5480 hc         1 N20       0.061700
     30 H121        -1.8650    -1.4610     3.5760 hc         1 N20       0.043700
     31 H122        -1.9060     0.2830     3.8110 hc         1 N20       0.043700
     32 H131        -4.3120    -1.6360     3.9750 hc         1 N20       0.039950
     33 H132        -3.5450    -0.8090     5.3270 hc         1 N20       0.039950
     34 H141        -5.6610     0.3560     4.6060 hc         1 N20       0.038200
     35 H142        -4.2570     1.4090     4.4540 hc         1 N20       0.038200
     36 H151        -5.6260    -0.1430     2.1700 hc         1 N20       0.039950
     37 H152        -5.6650     1.6000     2.4130 hc         1 N20       0.039950
     38 H161        -3.2210     1.7760     1.9990 hc         1 N20       0.043700
     39 H162        -3.9990     0.9540     0.6520 hc         1 N20       0.043700
     40 H19          6.3830     1.3320     1.0390 ha         1 N20       0.121000
     41 H21          3.4530    -1.3240     2.7730 ha         1 N20       0.121000
     42 H22          2.1170    -1.2160     0.6930 ha         1 N20       0.125000
     43 H9          -0.2880     0.1610    -5.6490 hn         1 N20       0.368000
     44 H2           3.3080     0.5520    -2.3170 hn         1 N20       0.510000
     45 H18          5.0390     1.4590    -1.0380 ha         1 N20       0.125000
     46 O23          5.7310    -0.0770     3.1960 oh         1 N20      -0.534100
@<TRIPOS>BOND
     1     1    14 ar  
     2     1    21 ar  
     3     1    22 1   
     4     2    18 2   
     5     2    19 1   
     6     2    26 1   
     7     3     4 1   
     8     3    16 1   
     9     3    27 1   
    10     3    28 1   
    11     4     5 1   
    12     4     9 1   
    13     4    29 1   
    14     5     6 1   
    15     5    30 1   
    16     5    31 1   
    17     6     7 1   
    18     6    32 1   
    19     6    33 1   
    20     7     8 1   
    21     7    34 1   
    22     7    35 1   
    23     8     9 1   
    24     8    36 1   
    25     8    37 1   
    26     9    38 1   
    27     9    39 1   
    28    10    11 ar  
    29    10    24 ar  
    30    10    40 1   
    31    11    12 ar  
    32    11    46 1   
    33    12    13 ar  
    34    12    41 1   
    35    13    23 ar  
    36    13    42 1   
    37    14    15 ar  
    38    15    16 1   
    39    15    17 ar  
    40    17    18 1   
    41    17    20 ar  
    42    19    20 1   
    43    19    43 1   
    44    20    21 ar  
    45    22    23 1   
    46    22    44 1   
    47    23    24 ar  
    48    24    45 1   
    49    25    46 1   
@<TRIPOS>SUBSTRUCTURE
     1 N20         1 TEMP              0 ****  ****    0 ROOT
