@<TRIPOS>MOLECULE
N21
   53    55     1     0     0
SMALL
abcg2


@<TRIPOS>ATOM
      1 OE1         -6.4560    -4.0510    -0.0120 o          1 N21      -0.762000
      2 CD          -5.3380    -3.5080    -0.1220 c          1 N21       0.715000
      3 OE2         -4.2560    -4.0900    -0.3480 o          1 N21      -0.762000
      4 CG          -5.2630    -1.9790     0.0230 c3         1 N21      -0.198400
      5 CB          -6.5590    -1.2910     0.4140 c3         1 N21      -0.030400
      6 C           -7.7070     0.8570     1.1210 c          1 N21       0.712000
      7 OXT         -7.9710     0.6000     2.3090 o          1 N21      -0.733000
      8 O           -8.3880     1.5290     0.3220 o          1 N21      -0.733000
      9 N           -6.0440     0.8140    -0.7220 n7         1 N21      -0.816300
     10 OBC         -5.1570     2.9660     0.4270 o          1 N21      -0.579500
     11 CAT         -2.9320     0.4740    -1.5370 ca         1 N21      -0.008000
     12 CAQ         -1.7360    -0.2010    -1.3660 ca         1 N21      -0.103500
     13 CAS         -3.4410     1.2200    -0.4830 ca         1 N21      -0.220500
     14 CAR         -2.7770     1.2990     0.7310 ca         1 N21      -0.008000
     15 CAP         -1.5830     0.6120     0.8890 ca         1 N21      -0.103500
     16 CAO         -1.0550    -0.1400    -0.1540 ca         1 N21      -0.071300
     17 CAN          0.2580    -0.8430     0.0140 c3         1 N21       0.203900
     18 CAA          2.5570    -0.2390    -0.1240 ca         1 N21       0.205100
     19 CAB          3.5020     0.7710    -0.3380 ca         1 N21      -0.194000
     20 CAG          4.8480     0.4940    -0.2720 ca         1 N21      -0.027000
     21 CAC          2.9920    -1.5340     0.1560 ca         1 N21      -0.194000
     22 CAE          4.3490    -1.7960     0.2150 ca         1 N21      -0.027000
     23 CAF          5.3110    -0.8010     0.0080 ca         1 N21      -0.168800
     24 CAH          6.7000    -1.1910     0.1010 ce         1 N21       0.022800
     25 SBG          8.0300     1.2380    -0.3270 ss         1 N21      -0.179200
     26 CAL          9.8000     1.1060    -0.2650 c          1 N21       0.591600
     27 NAX         10.1500    -0.1900    -0.0180 ns         1 N21      -0.482500
     28 CA          -6.4080     0.2230     0.5710 c3         1 N21       0.042500
     29 CAK          9.1530    -1.1270     0.1330 c          1 N21       0.589200
     30 CAI          7.8330    -0.4780    -0.0130 cd         1 N21      -0.172600
     31 SAU         -4.9810     2.0680    -0.7100 sy         1 N21       1.116600
     32 OBD         -5.0130     2.6430    -2.0490 o          1 N21      -0.579500
     33 OAY          1.2730     0.1300    -0.2100 os         1 N21      -0.328100
     34 HG1C        -4.4830    -1.7410     0.7550 hc         1 N21       0.008700
     35 HG2C        -4.8920    -1.5650    -0.9200 hc         1 N21       0.008700
     36 HB1C        -7.3380    -1.4960    -0.3270 hc         1 N21       0.052700
     37 HB2C        -6.9230    -1.6900     1.3630 hc         1 N21       0.052700
     38 HA          -5.6030     0.4040     1.2900 h1         1 N21       0.036700
     39 H           -6.8970     1.1160    -1.1980 hn         1 N21       0.500000
     40 HAT         -3.4570     0.4120    -2.4810 ha         1 N21       0.139500
     41 HAQ         -1.3320    -0.7860    -2.1830 ha         1 N21       0.104000
     42 HAR         -3.1780     1.8830     1.5480 ha         1 N21       0.139500
     43 HAP         -1.0630     0.6620     1.8380 ha         1 N21       0.104000
     44 HAN1         0.3470    -1.2580     1.0230 h1         1 N21       0.051200
     45 HAN2         0.3500    -1.6650    -0.7020 h1         1 N21       0.051200
     46 HAB          3.1650     1.7760    -0.5580 ha         1 N21       0.137000
     47 HAC          2.2970    -2.3440     0.3240 ha         1 N21       0.137000
     48 HAG          5.5300     1.3140    -0.4470 ha         1 N21       0.113500
     49 HAE          4.6710    -2.8070     0.4310 ha         1 N21       0.113500
     50 HAH          6.8580    -2.2460     0.3040 ha         1 N21       0.193000
     51 HAX         11.1280    -0.4480     0.0470 hn         1 N21       0.341500
     52 OBE          9.3570    -2.2980     0.3530 o          1 N21      -0.510000
     53 OBH         10.5440     2.0340    -0.4220 o          1 N21      -0.489000
@<TRIPOS>BOND
     1     1     2 1   
     2     2     3 1   
     3     2     4 1   
     4     4     5 1   
     5     4    34 1   
     6     4    35 1   
     7     5    28 1   
     8     5    36 1   
     9     5    37 1   
    10     6     7 1   
    11     6     8 1   
    12     6    28 1   
    13     9    28 1   
    14     9    31 1   
    15     9    39 1   
    16    10    31 2   
    17    11    12 ar  
    18    11    13 ar  
    19    11    40 1   
    20    12    16 ar  
    21    12    41 1   
    22    13    14 ar  
    23    13    31 1   
    24    14    15 ar  
    25    14    42 1   
    26    15    16 ar  
    27    15    43 1   
    28    16    17 1   
    29    17    33 1   
    30    17    44 1   
    31    17    45 1   
    32    18    19 ar  
    33    18    21 ar  
    34    18    33 1   
    35    19    20 ar  
    36    19    46 1   
    37    20    23 ar  
    38    20    48 1   
    39    21    22 ar  
    40    21    47 1   
    41    22    23 ar  
    42    22    49 1   
    43    23    24 1   
    44    24    30 2   
    45    24    50 1   
    46    25    26 1   
    47    25    30 1   
    48    26    27 1   
    49    26    53 2   
    50    27    29 1   
    51    27    51 1   
    52    28    38 1   
    53    29    30 1   
    54    29    52 2   
    55    31    32 2   
@<TRIPOS>SUBSTRUCTURE
     1 N21         1 TEMP              0 ****  ****    0 ROOT
