@<TRIPOS>MOLECULE
N21
   53    55     1     0     0
SMALL
No Charge or Current Charge


@<TRIPOS>ATOM
      1 OE1         -8.4030    -3.6450    -1.0030 o          1 N21      -0.762000
      2 CD          -7.3550    -3.6230    -0.3750 c          1 N21       0.715000
      3 OE2         -7.0140    -4.5080     0.3950 o          1 N21      -0.762000
      4 CG          -6.4480    -2.3860    -0.5110 c3         1 N21      -0.198400
      5 CB          -6.8450    -1.3230     0.5490 c3         1 N21      -0.030400
      6 C           -6.2030     0.7760     1.8780 c          1 N21       0.712000
      7 OXT         -5.3230     0.8540     2.7240 o          1 N21      -0.733000
      8 O           -7.2890     1.3330     1.9870 o          1 N21      -0.733000
      9 N           -6.0890     0.7020    -0.7040 n7         1 N21      -0.816300
     10 OBC         -5.3020     3.0180    -0.1260 o          1 N21      -0.579500
     11 CAT         -2.8880     0.2240    -1.5970 ca         1 N21      -0.008000
     12 CAQ         -1.6500    -0.3790    -1.3160 ca         1 N21      -0.103500
     13 CAS         -3.4260     1.1770    -0.7090 ca         1 N21      -0.220500
     14 CAR         -2.7190     1.5190     0.4610 ca         1 N21      -0.008000
     15 CAP         -1.4800     0.9130     0.7360 ca         1 N21      -0.103500
     16 CAO         -0.9390    -0.0390    -0.1490 ca         1 N21      -0.071300
     17 CAN          0.4020    -0.6950     0.1530 c3         1 N21       0.203900
     18 CAA          2.7740    -0.2470    -0.3480 ca         1 N21       0.205100
     19 CAB          3.7120     0.5880    -0.9730 ca         1 N21      -0.194000
     20 CAG          5.0850     0.2950    -0.9070 ca         1 N21      -0.027000
     21 CAC          3.2190    -1.3930     0.3440 ca         1 N21      -0.194000
     22 CAE          4.5920    -1.6870     0.4090 ca         1 N21      -0.027000
     23 CAF          5.5350    -0.8400    -0.2050 ca         1 N21      -0.168800
     24 CAH          6.9840    -1.1840    -0.1310 ce         1 N21       0.022800
     25 SBG          7.9460     1.3770     0.3650 ss         1 N21      -0.179200
     26 CAL          9.7410     1.5060     0.6030 c          1 N21       0.591600
     27 NAX         10.2490     0.2520     0.4660 ns         1 N21      -0.482500
     28 CA          -5.9270    -0.0710     0.5760 c3         1 N21       0.042500
     29 CAK          9.4710    -0.8290     0.2020 c          1 N21       0.589200
     30 CAI          8.0740    -0.3690     0.0980 cd         1 N21      -0.172600
     31 SAU         -5.0200     1.9350    -1.0700 sy         1 N21       1.116600
     32 OBD         -5.1390     2.1130    -2.5200 o          1 N21      -0.579500
     33 OAY          1.4420     0.0940    -0.4490 os         1 N21      -0.328100
     34 HG1C        -5.4050    -2.6490    -0.2950 hc         1 N21       0.008700
     35 HG2C        -6.5900    -1.9130    -1.4900 hc         1 N21       0.008700
     36 HB1C        -7.8850    -1.0140     0.3900 hc         1 N21       0.052700
     37 HB2C        -6.8100    -1.7940     1.5400 hc         1 N21       0.052700
     38 HA          -4.8980    -0.4460     0.6580 h1         1 N21       0.036700
     39 H           -6.9610     1.2270    -0.6530 hn         1 N21       0.500000
     40 HAT         -3.4300    -0.0540    -2.4990 ha         1 N21       0.139500
     41 HAQ         -1.2430    -1.1120    -2.0090 ha         1 N21       0.104000
     42 HAR         -3.1240     2.2480     1.1610 ha         1 N21       0.139500
     43 HAP         -0.9420     1.1850     1.6410 ha         1 N21       0.104000
     44 HAN1         0.5420    -0.7570     1.2400 h1         1 N21       0.051200
     45 HAN2         0.4080    -1.7160    -0.2510 h1         1 N21       0.051200
     46 HAB          3.3720     1.4660    -1.5150 ha         1 N21       0.137000
     47 HAC          2.5200    -2.0640     0.8340 ha         1 N21       0.137000
     48 HAG          5.7930     0.9450    -1.4170 ha         1 N21       0.113500
     49 HAE          4.9250    -2.5740     0.9460 ha         1 N21       0.113500
     50 HAH          7.2080    -2.2490    -0.2230 ha         1 N21       0.193000
     51 HAX         11.2430     0.1180     0.5690 hn         1 N21       0.341500
     52 OBE          9.8880    -1.9690     0.0810 o          1 N21      -0.510000
     53 OBH         10.3910     2.5100     0.8420 o          1 N21      -0.489000
@<TRIPOS>BOND
     1     1     2 1   
     2     2     3 1   
     3     2     4 1   
     4     4     5 1   
     5     4    34 1   
     6     4    35 1   
     7     5    28 1   
     8     5    36 1   
     9     5    37 1   
    10     6     7 1   
    11     6     8 1   
    12     6    28 1   
    13     9    28 1   
    14     9    31 1   
    15     9    39 1   
    16    10    31 2   
    17    11    12 ar  
    18    11    13 ar  
    19    11    40 1   
    20    12    16 ar  
    21    12    41 1   
    22    13    14 ar  
    23    13    31 1   
    24    14    15 ar  
    25    14    42 1   
    26    15    16 ar  
    27    15    43 1   
    28    16    17 1   
    29    17    33 1   
    30    17    44 1   
    31    17    45 1   
    32    18    19 ar  
    33    18    21 ar  
    34    18    33 1   
    35    19    20 ar  
    36    19    46 1   
    37    20    23 ar  
    38    20    48 1   
    39    21    22 ar  
    40    21    47 1   
    41    22    23 ar  
    42    22    49 1   
    43    23    24 1   
    44    24    30 2   
    45    24    50 1   
    46    25    26 1   
    47    25    30 1   
    48    26    27 1   
    49    26    53 2   
    50    27    29 1   
    51    27    51 1   
    52    28    38 1   
    53    29    30 1   
    54    29    52 2   
    55    31    32 2   
@<TRIPOS>SUBSTRUCTURE
     1 N21         1 TEMP              0 ****  ****    0 ROOT
