@<TRIPOS>MOLECULE
N22
   43    44     1     0     0
SMALL
bcc


@<TRIPOS>ATOM
      1 C8          -2.8330     0.0250     3.0450 c3         1 N22      -0.084100
      2 C7          -3.4050     1.0680     2.0840 c3         1 N22      -0.134700
      3 C5          -3.4830     0.5310     0.6870 ca         1 N22       0.547600
      4 N4          -4.6340    -0.0160     0.3130 nb         1 N22      -0.819000
      5 C3          -4.6820    -0.5350    -0.9180 ca         1 N22       0.949900
      6 N8          -5.8400    -1.1190    -1.2840 nv         1 N22      -0.949500
      7 N2          -3.6910    -0.5560    -1.8080 nb         1 N22      -0.869000
      8 C1          -2.5380    -0.0080    -1.4390 ca         1 N22       0.773200
      9 N7          -1.5260    -0.0240    -2.3140 nv         1 N22      -0.970500
     10 C6          -2.3730     0.5720    -0.1520 ca         1 N22      -0.344600
     11 C9          -1.1270     1.1390     0.2070 cg         1 N22      -0.087000
     12 C10         -0.0220     1.5790     0.4130 c1         1 N22      -0.151100
     13 C11          1.3310     2.0670     0.6530 c3         1 N22       0.076000
     14 C13          2.3690     1.0130     0.3490 ca         1 N22      -0.072300
     15 C18          3.1150     0.4540     1.3690 ca         1 N22      -0.122000
     16 C17          4.0800    -0.5250     1.1150 ca         1 N22       0.109100
     17 O2           4.7480    -0.9970     2.1910 os         1 N22      -0.316900
     18 C4           5.7340    -1.9860     1.9790 c3         1 N22       0.125700
     19 C16          4.2870    -0.9390    -0.1910 ca         1 N22      -0.177000
     20 C15          3.5370    -0.3830    -1.2270 ca         1 N22      -0.175000
     21 C14          2.5810     0.5870    -0.9710 ca         1 N22       0.106100
     22 O10          1.8110     1.1710    -1.9180 os         1 N22      -0.322900
     23 C2           2.0500     0.8420    -3.2720 c3         1 N22       0.119700
     24 H8          -2.7870     0.4240     4.0580 hc         1 N22       0.038700
     25 H8A         -3.4530    -0.8710     3.0650 hc         1 N22       0.038700
     26 H8B         -1.8240    -0.2680     2.7530 hc         1 N22       0.038700
     27 H7          -4.4070     1.3560     2.4060 hc         1 N22       0.059200
     28 H7A         -2.7810     1.9630     2.1040 hc         1 N22       0.059200
     29 HN8         -6.6600    -0.9450    -0.7300 hn         1 N22       0.437300
     30 HN8A        -5.9840    -1.3490    -2.2520 hn         1 N22       0.437300
     31 HN7         -1.6620    -0.4040    -3.2350 hn         1 N22       0.449300
     32 HN7A        -0.6520     0.4240    -2.0990 hn         1 N22       0.449300
     33 H11          1.5120     2.9650     0.0550 hc         1 N22       0.064200
     34 H11A         1.4220     2.3740     1.6970 hc         1 N22       0.064200
     35 H18          2.9530     0.7820     2.3890 ha         1 N22       0.148000
     36 H4           6.1490    -2.2250     2.9550 h1         1 N22       0.039367
     37 H4A          5.3150    -2.8970     1.5420 h1         1 N22       0.039367
     38 H4B          6.5410    -1.6280     1.3330 h1         1 N22       0.039367
     39 H16          5.0220    -1.6930    -0.4360 ha         1 N22       0.135000
     40 H15          3.7230    -0.7330    -2.2330 ha         1 N22       0.133000
     41 H2           3.0760     1.0710    -3.5720 h1         1 N22       0.039700
     42 H2A          1.8500    -0.2130    -3.4780 h1         1 N22       0.039700
     43 H2B          1.3690     1.4500    -3.8630 h1         1 N22       0.039700
@<TRIPOS>BOND
     1     1     2 1   
     2     1    24 1   
     3     1    25 1   
     4     1    26 1   
     5     2     3 1   
     6     2    27 1   
     7     2    28 1   
     8     3     4 ar  
     9     3    10 ar  
    10     4     5 ar  
    11     5     6 1   
    12     5     7 ar  
    13     6    29 1   
    14     6    30 1   
    15     7     8 ar  
    16     8     9 1   
    17     8    10 ar  
    18     9    31 1   
    19     9    32 1   
    20    10    11 1   
    21    11    12 3   
    22    12    13 1   
    23    13    14 1   
    24    13    33 1   
    25    13    34 1   
    26    14    15 ar  
    27    14    21 ar  
    28    15    16 ar  
    29    15    35 1   
    30    16    17 1   
    31    16    19 ar  
    32    17    18 1   
    33    18    36 1   
    34    18    37 1   
    35    18    38 1   
    36    19    20 ar  
    37    19    39 1   
    38    20    21 ar  
    39    20    40 1   
    40    21    22 1   
    41    22    23 1   
    42    23    41 1   
    43    23    42 1   
    44    23    43 1   
@<TRIPOS>SUBSTRUCTURE
     1 N22         1 TEMP              0 ****  ****    0 ROOT
