@<TRIPOS>MOLECULE
N22
   43    44     1     0     0
SMALL
No Charge or Current Charge


@<TRIPOS>ATOM
      1 C8          -0.7670    -2.0370    -0.9220 c3         1 N22      -0.084100
      2 C7          -1.4980    -1.4740     0.3150 c3         1 N22      -0.134700
      3 C5          -2.6820    -0.5750    -0.0500 ca         1 N22       0.219300
      4 N4          -3.9000    -1.1520     0.0150 nb         1 N22      -0.293000
      5 C3          -4.9440    -0.3780    -0.3010 ca         1 N22       0.423900
      6 N8          -6.1600    -0.9600    -0.2290 nv         1 N22      -1.059900
      7 N2          -4.9330     0.9030    -0.6740 nb         1 N22      -0.343000
      8 C1          -3.7280     1.4730    -0.7430 ca         1 N22       0.444900
      9 N7          -3.7490     2.7760    -1.1270 nv         1 N22      -1.080900
     10 C6          -2.5390     0.7800    -0.4370 ca         1 N22      -0.214000
     11 C9          -1.2440     1.4070    -0.5150 cg         1 N22      -0.087000
     12 C10         -0.1330     1.8930    -0.5760 c1         1 N22      -0.151100
     13 C11          1.2440     2.3960    -0.6390 c3         1 N22       0.076000
     14 C13          2.2020     1.3930     0.0040 ca         1 N22      -0.072300
     15 C18          2.5970     1.5780     1.3450 ca         1 N22      -0.104000
     16 C17          3.4580     0.6680     1.9760 ca         1 N22       0.109100
     17 O2           3.8040     0.9100     3.2910 os         1 N22      -0.340100
     18 C4           4.6760     0.0360     4.0300 c3         1 N22       0.148900
     19 C16          3.9350    -0.4500     1.2590 ca         1 N22      -0.159000
     20 C15          3.5460    -0.6460    -0.0780 ca         1 N22      -0.157000
     21 C14          2.6780     0.2710    -0.7130 ca         1 N22       0.106100
     22 O10          2.2740     0.1010    -2.0260 os         1 N22      -0.346100
     23 C2           2.6530    -1.0440    -2.8100 c3         1 N22       0.142900
     24 H8           0.0730    -2.6710    -0.6150 hc         1 N22       0.038700
     25 H8A         -1.4490    -2.6400    -1.5320 hc         1 N22       0.038700
     26 H8B         -0.3720    -1.2270    -1.5460 hc         1 N22       0.038700
     27 H7          -1.8370    -2.3150     0.9320 hc         1 N22       0.059200
     28 H7A         -0.7800    -0.9250     0.9360 hc         1 N22       0.059200
     29 HN8         -6.2390    -1.8440     0.2670 hn         1 N22       0.492500
     30 HN8A        -6.9820    -0.3610    -0.2330 hn         1 N22       0.492500
     31 HN7         -4.6350     3.2710    -1.0820 hn         1 N22       0.504500
     32 HN7A        -2.9080     3.3290    -0.9810 hn         1 N22       0.504500
     33 H11          1.5140     2.5830    -1.6850 hc         1 N22       0.064200
     34 H11A         1.2930     3.3660    -0.1300 hc         1 N22       0.064200
     35 H18          2.2290     2.4330     1.9070 ha         1 N22       0.130000
     36 H4           4.8160     0.4130     5.0500 h1         1 N22       0.039367
     37 H4A          4.2520    -0.9740     4.0950 h1         1 N22       0.039367
     38 H4B          5.6620    -0.0250     3.5520 h1         1 N22       0.039367
     39 H16          4.6020    -1.1730     1.7190 ha         1 N22       0.117000
     40 H15          3.9280    -1.5170    -0.6030 ha         1 N22       0.115000
     41 H2           3.7430    -1.0960    -2.9250 h1         1 N22       0.039700
     42 H2A          2.3020    -1.9720    -2.3390 h1         1 N22       0.039700
     43 H2B          2.2080    -0.9820    -3.8110 h1         1 N22       0.039700
@<TRIPOS>BOND
     1     1     2 1   
     2     1    24 1   
     3     1    25 1   
     4     1    26 1   
     5     2     3 1   
     6     2    27 1   
     7     2    28 1   
     8     3     4 ar  
     9     3    10 ar  
    10     4     5 ar  
    11     5     6 1   
    12     5     7 ar  
    13     6    29 1   
    14     6    30 1   
    15     7     8 ar  
    16     8     9 1   
    17     8    10 ar  
    18     9    31 1   
    19     9    32 1   
    20    10    11 1   
    21    11    12 3   
    22    12    13 1   
    23    13    14 1   
    24    13    33 1   
    25    13    34 1   
    26    14    15 ar  
    27    14    21 ar  
    28    15    16 ar  
    29    15    35 1   
    30    16    17 1   
    31    16    19 ar  
    32    17    18 1   
    33    18    36 1   
    34    18    37 1   
    35    18    38 1   
    36    19    20 ar  
    37    19    39 1   
    38    20    21 ar  
    39    20    40 1   
    40    21    22 1   
    41    22    23 1   
    42    23    41 1   
    43    23    42 1   
    44    23    43 1   
@<TRIPOS>SUBSTRUCTURE
     1 N22         1 TEMP              0 ****  ****    0 ROOT
