@<TRIPOS>MOLECULE
N23
   36    38     1     0     0
SMALL
No Charge or Current Charge


@<TRIPOS>ATOM
      1 CAO          2.4030     3.3680     0.2540 c3         1 N23      -0.040900
      2 CAB          2.9080     1.9510     0.2170 cc         1 N23      -0.044300
      3 NAA          4.2370     1.5800    -0.0630 na         1 N23      -0.222700
      4 CAE          4.3630     0.2030    -0.0250 ca         1 N23      -0.043200
      5 CAR          5.4990    -0.5870    -0.2450 ca         1 N23      -0.128000
      6 CAT          5.3550    -1.9880    -0.1460 ca         1 N23      -0.092000
      7 CAS          4.0960    -2.5600     0.1640 ca         1 N23      -0.139000
      8 CAQ          2.9700    -1.7350     0.3800 ca         1 N23      -0.064000
      9 CAD          3.1510    -0.3500     0.2750 ca         1 N23      -0.091800
     10 CAC          2.2300     0.7540     0.4290 cd         1 N23      -0.146400
     11 CAN          0.7650     0.6140     0.7600 c3         1 N23      -0.013200
     12 CAP         -0.0760     0.2550    -0.4790 c3         1 N23       0.100000
     13 NAM         -1.4970     0.1140    -0.1580 ns         1 N23      -0.505900
     14 CAG         -2.4720    -0.1810    -1.0790 c          1 N23       0.641700
     15 OAK         -2.2200    -0.3510    -2.2630 o          1 N23      -0.595100
     16 CAF         -3.8300    -0.2700    -0.5080 cc         1 N23      -0.289600
     17 CAI         -4.9570    -0.5540    -1.2410 cd         1 N23      -0.065000
     18 CAL         -6.1400    -0.5820    -0.4550 cd         1 N23      -0.143000
     19 CAJ         -5.9230    -0.3210     0.8750 cc         1 N23      -0.226000
     20 SAH         -4.2160    -0.0290     1.1940 ss         1 N23       0.203000
     21 HAO          1.5210     3.4830    -0.3880 hc         1 N23       0.050367
     22 HAOA         2.1190     3.6530     1.2740 hc         1 N23       0.050367
     23 HAOB         3.1670     4.0730    -0.0940 hc         1 N23       0.050367
     24 HNAA         4.9930     2.2260    -0.2650 hn         1 N23       0.348000
     25 HAR          6.4600    -0.1380    -0.4830 ha         1 N23       0.113000
     26 HAT          6.2160    -2.6330    -0.3110 ha         1 N23       0.110000
     27 HAS          3.9960    -3.6400     0.2370 ha         1 N23       0.110000
     28 HAQ          1.9990    -2.1620     0.6190 ha         1 N23       0.112000
     29 HAN          0.6300    -0.1620     1.5230 hc         1 N23       0.045200
     30 HANA         0.3830     1.5450     1.1960 hc         1 N23       0.045200
     31 HAP          0.0410     1.0410    -1.2370 h1         1 N23       0.057700
     32 HAPA         0.2870    -0.6890    -0.9060 h1         1 N23       0.057700
     33 HNAM        -1.7960     0.2380     0.8000 hn         1 N23       0.310500
     34 HAI         -4.9490    -0.7380    -2.3130 ha         1 N23       0.154000
     35 HAL         -7.1230    -0.7900    -0.8680 ha         1 N23       0.139000
     36 HAJ         -6.6340    -0.2780     1.6910 h4         1 N23       0.152000
@<TRIPOS>BOND
     1     1     2 1   
     2     1    21 1   
     3     1    22 1   
     4     1    23 1   
     5     2     3 1   
     6     2    10 2   
     7     3     4 1   
     8     3    24 1   
     9     4     5 ar  
    10     4     9 ar  
    11     5     6 ar  
    12     5    25 1   
    13     6     7 ar  
    14     6    26 1   
    15     7     8 ar  
    16     7    27 1   
    17     8     9 ar  
    18     8    28 1   
    19     9    10 1   
    20    10    11 1   
    21    11    12 1   
    22    11    29 1   
    23    11    30 1   
    24    12    13 1   
    25    12    31 1   
    26    12    32 1   
    27    13    14 1   
    28    13    33 1   
    29    14    15 2   
    30    14    16 1   
    31    16    17 2   
    32    16    20 1   
    33    17    18 1   
    34    17    34 1   
    35    18    19 2   
    36    18    35 1   
    37    19    20 1   
    38    19    36 1   
@<TRIPOS>SUBSTRUCTURE
     1 N23         1 TEMP              0 ****  ****    0 ROOT
