@<TRIPOS>MOLECULE
N23
   36    38     1     0     0
SMALL
bcc


@<TRIPOS>ATOM
      1 CAO          2.4290     3.2950     0.1120 c3         1 N23      -0.040900
      2 CAB          2.8860     1.8800     0.1560 cc         1 N23      -0.044300
      3 NAA          4.1790     1.5520    -0.1600 na         1 N23      -0.172400
      4 CAE          4.3500     0.2010    -0.0770 ca         1 N23      -0.043200
      5 CAR          5.4770    -0.5880    -0.2990 ca         1 N23      -0.146000
      6 CAT          5.3420    -1.9550    -0.1350 ca         1 N23      -0.110000
      7 CAS          4.1160    -2.5260     0.2430 ca         1 N23      -0.157000
      8 CAQ          3.0020    -1.7380     0.4640 ca         1 N23      -0.082000
      9 CAD          3.1090    -0.3520     0.3050 ca         1 N23      -0.091800
     10 CAC          2.1900     0.7370     0.4530 cd         1 N23      -0.146400
     11 CAN          0.7430     0.6180     0.7980 c3         1 N23      -0.013200
     12 CAP         -0.0930     0.2540    -0.4260 c3         1 N23       0.100000
     13 NAM         -1.4820     0.0750    -0.0590 ns         1 N23      -0.572900
     14 CAG         -2.4730     0.0630    -0.9670 c          1 N23       0.708700
     15 OAK         -2.2820     0.2270    -2.1640 o          1 N23      -0.595100
     16 CAF         -3.8430    -0.1550    -0.4530 cc         1 N23      -0.144700
     17 CAI         -4.9250    -0.4690    -1.2260 cd         1 N23      -0.083000
     18 CAL         -6.1140    -0.6260    -0.4740 cd         1 N23      -0.161000
     19 CAJ         -5.9180    -0.4190     0.8590 cc         1 N23      -0.099100
     20 SAH         -4.2920    -0.0330     1.2080 ss         1 N23      -0.086800
     21 HAO          2.2050     3.6100    -0.9090 hc         1 N23       0.050367
     22 HAOA         1.5260     3.4310     0.7040 hc         1 N23       0.050367
     23 HAOB         3.1900     3.9710     0.5040 hc         1 N23       0.050367
     24 HNAA         4.8970     2.2170    -0.3940 hn         1 N23       0.297700
     25 HAR          6.4230    -0.1500    -0.5920 ha         1 N23       0.131000
     26 HAT          6.1970    -2.5970    -0.3020 ha         1 N23       0.128000
     27 HAS          4.0460    -3.5990     0.3610 ha         1 N23       0.128000
     28 HAQ          2.0610    -2.1880     0.7570 ha         1 N23       0.130000
     29 HAN          0.6090    -0.1470     1.5710 hc         1 N23       0.045200
     30 HANA         0.3680     1.5520     1.2220 hc         1 N23       0.045200
     31 HAP         -0.0190     1.0500    -1.1670 h1         1 N23       0.057700
     32 HAPA         0.3030    -0.6550    -0.8900 h1         1 N23       0.057700
     33 HNAM        -1.6640    -0.2400     0.8810 hn         1 N23       0.310500
     34 HAI         -4.8670    -0.5900    -2.2980 ha         1 N23       0.172000
     35 HAL         -7.0730    -0.8780    -0.9020 ha         1 N23       0.157000
     36 HAJ         -6.6450    -0.4650     1.6550 h4         1 N23       0.170000
@<TRIPOS>BOND
     1     1     2 1   
     2     1    21 1   
     3     1    22 1   
     4     1    23 1   
     5     2     3 1   
     6     2    10 2   
     7     3     4 1   
     8     3    24 1   
     9     4     5 ar  
    10     4     9 ar  
    11     5     6 ar  
    12     5    25 1   
    13     6     7 ar  
    14     6    26 1   
    15     7     8 ar  
    16     7    27 1   
    17     8     9 ar  
    18     8    28 1   
    19     9    10 1   
    20    10    11 1   
    21    11    12 1   
    22    11    29 1   
    23    11    30 1   
    24    12    13 1   
    25    12    31 1   
    26    12    32 1   
    27    13    14 1   
    28    13    33 1   
    29    14    15 2   
    30    14    16 1   
    31    16    17 2   
    32    16    20 1   
    33    17    18 1   
    34    17    34 1   
    35    18    19 2   
    36    18    35 1   
    37    19    20 1   
    38    19    36 1   
@<TRIPOS>SUBSTRUCTURE
     1 N23         1 TEMP              0 ****  ****    0 ROOT
