@<TRIPOS>MOLECULE
N24
   32    34     1     0     0
SMALL
bcc


@<TRIPOS>ATOM
      1 CAJ         -1.6030    -0.6840    -0.2600 ca         1 N24      -0.082000
      2 CAN         -2.6240     0.0480     0.3340 ca         1 N24      -0.023900
      3 BRAR        -4.1080     0.5710    -0.7100 br         1 N24      -0.094100
      4 CAU         -2.5710     0.4020     1.6710 ca         1 N24      -0.087000
      5 CAT         -1.4710     0.0080     2.4250 ca         1 N24      -0.131000
      6 CAS         -0.4490    -0.7280     1.8500 ca         1 N24      -0.082000
      7 CAF         -0.5120    -1.0730     0.5040 ca         1 N24      -0.102300
      8 CAB          0.6080    -1.8270    -0.1570 c5         1 N24       0.268100
      9 SAD          0.9250    -3.4150     0.6950 ss         1 N24      -0.302200
     10 CAH          2.7120    -3.2640     0.4780 c5         1 N24      -0.086300
     11 CAE          3.0020    -1.8060     0.2040 c          1 N24       0.719500
     12 OAK          4.1150    -1.3250     0.2070 o          1 N24      -0.587500
     13 NAA          1.8690    -1.1110    -0.0700 n          1 N24      -0.398000
     14 CAC          1.9270     0.2390    -0.4870 ca         1 N24       0.017600
     15 CAG          2.0010     1.2520     0.4560 ca         1 N24      -0.061000
     16 CAM          2.0390     2.5720     0.0430 ca         1 N24      -0.006600
     17 CAO          1.9980     2.8910    -1.3050 ca         1 N24      -0.069000
     18 CAL          1.9300     1.8770    -2.2460 ca         1 N24      -0.213000
     19 CAI          1.9050     0.5430    -1.8500 ca         1 N24       0.144100
     20 OAQ          1.8610    -0.4800    -2.7160 oh         1 N24      -0.488100
     21 CL           2.1300     3.8350     1.2270 cl         1 N24      -0.101400
     22 HAJ         -1.6510    -0.9510    -1.3080 ha         1 N24       0.148000
     23 HAU         -3.3650     0.9730     2.1320 ha         1 N24       0.150000
     24 HAT         -1.4200     0.2800     3.4700 ha         1 N24       0.140000
     25 HAS          0.4000    -1.0350     2.4490 ha         1 N24       0.149000
     26 HAB          0.3530    -2.0220    -1.2010 h2         1 N24       0.088700
     27 HAH          3.2310    -3.5890     1.3780 h1         1 N24       0.103200
     28 HAHA         3.0720    -3.8600    -0.3620 h1         1 N24       0.103200
     29 HAG          2.0230     0.9980     1.5070 ha         1 N24       0.159000
     30 HAO          2.0210     3.9220    -1.6280 ha         1 N24       0.150000
     31 HAL          1.9070     2.1300    -3.3000 ha         1 N24       0.140000
     32 HOAQ         1.8280    -0.1560    -3.6230 ho         1 N24       0.433000
@<TRIPOS>BOND
     1     1     2 ar  
     2     1     7 ar  
     3     1    22 1   
     4     2     3 1   
     5     2     4 ar  
     6     4     5 ar  
     7     4    23 1   
     8     5     6 ar  
     9     5    24 1   
    10     6     7 ar  
    11     6    25 1   
    12     7     8 1   
    13     8     9 1   
    14     8    13 1   
    15     8    26 1   
    16     9    10 1   
    17    10    11 1   
    18    10    27 1   
    19    10    28 1   
    20    11    12 2   
    21    11    13 1   
    22    13    14 1   
    23    14    15 ar  
    24    14    19 ar  
    25    15    16 ar  
    26    15    29 1   
    27    16    17 ar  
    28    16    21 1   
    29    17    18 ar  
    30    17    30 1   
    31    18    19 ar  
    32    18    31 1   
    33    19    20 1   
    34    20    32 1   
@<TRIPOS>SUBSTRUCTURE
     1 N24         1 TEMP              0 ****  ****    0 ROOT
