@<TRIPOS>MOLECULE
N24
   32    34     1     0     0
SMALL
No Charge or Current Charge


@<TRIPOS>ATOM
      1 CAJ         -1.5890    -0.9660    -0.4620 ca         1 N24      -0.064000
      2 CAN         -2.7070    -0.2210    -0.0500 ca         1 N24      -0.023900
      3 BrAR        -4.1620     0.0570    -1.2590 br         1 N24      -0.094100
      4 CAU         -2.7580     0.3230     1.2430 ca         1 N24      -0.069000
      5 CAT         -1.6860     0.1180     2.1270 ca         1 N24      -0.113000
      6 CAS         -0.5660    -0.6260     1.7160 ca         1 N24      -0.064000
      7 CAF         -0.5050    -1.1720     0.4150 ca         1 N24      -0.102300
      8 CAB          0.7150    -1.9740    -0.0450 c5         1 N24       0.316000
      9 SAD          1.0650    -3.4270     1.0470 ss         1 N24      -0.398000
     10 CAH          2.8540    -3.2730     0.6050 c5         1 N24      -0.038400
     11 CAE          3.1310    -1.7770     0.3840 c          1 N24       0.577000
     12 OAK          4.2250    -1.2300     0.4600 o          1 N24      -0.512000
     13 NAA          1.9240    -1.1130     0.0590 n          1 N24      -0.238400
     14 CAC          1.8820     0.2880    -0.3110 ca         1 N24      -0.075000
     15 CAG          2.5600     1.2340     0.4900 ca         1 N24      -0.043000
     16 CAM          2.6530     2.5780     0.0950 ca         1 N24       0.085000
     17 CAO          2.1230     2.9890    -1.1370 ca         1 N24      -0.051000
     18 CAL          1.5260     2.0430    -1.9870 ca         1 N24      -0.195000
     19 CAI          1.4300     0.6970    -1.5940 ca         1 N24       0.144100
     20 OAQ          0.9170    -0.2050    -2.4820 oh         1 N24      -0.527100
     21 Cl           3.4500     3.7470     1.1400 cl         1 N24      -0.193000
     22 HAJ         -1.5620    -1.3790    -1.4680 ha         1 N24       0.130000
     23 HAU         -3.6240     0.9000     1.5600 ha         1 N24       0.132000
     24 HAT         -1.7220     0.5370     3.1310 ha         1 N24       0.122000
     25 HAS          0.2590    -0.7750     2.4100 ha         1 N24       0.131000
     26 HAB          0.6310    -2.2940    -1.0900 h2         1 N24       0.088700
     27 HAH          3.4990    -3.6530     1.4070 h1         1 N24       0.103200
     28 HAHA         3.0680    -3.8070    -0.3290 h1         1 N24       0.103200
     29 HAG          2.9890     0.9350     1.4430 ha         1 N24       0.141000
     30 HAO          2.2010     4.0290    -1.4420 ha         1 N24       0.132000
     31 HAL          1.1560     2.3620    -2.9580 ha         1 N24       0.122000
     32 HOAQ         0.7060     0.2670    -3.3150 ho         1 N24       0.472000
@<TRIPOS>BOND
     1     1     2 ar  
     2     1     7 ar  
     3     1    22 1   
     4     2     3 1   
     5     2     4 ar  
     6     4     5 ar  
     7     4    23 1   
     8     5     6 ar  
     9     5    24 1   
    10     6     7 ar  
    11     6    25 1   
    12     7     8 1   
    13     8     9 1   
    14     8    13 1   
    15     8    26 1   
    16     9    10 1   
    17    10    11 1   
    18    10    27 1   
    19    10    28 1   
    20    11    12 2   
    21    11    13 1   
    22    13    14 1   
    23    14    15 ar  
    24    14    19 ar  
    25    15    16 ar  
    26    15    29 1   
    27    16    17 ar  
    28    16    21 1   
    29    17    18 ar  
    30    17    30 1   
    31    18    19 ar  
    32    18    31 1   
    33    19    20 1   
    34    20    32 1   
@<TRIPOS>SUBSTRUCTURE
     1 N24         1 TEMP              0 ****  ****    0 ROOT
