@<TRIPOS>MOLECULE
N26
   26    27     1     0     0
SMALL
bcc


@<TRIPOS>ATOM
      1 O1          -3.7040     0.0620    -0.9860 os         1 N26      -0.482000
      2 C2          -2.4380     0.2070    -0.5710 ca         1 N26       0.233600
      3 C3          -1.5830    -0.8660    -0.4860 ca         1 N26      -0.214500
      4 C4          -0.2250    -0.6960    -0.1300 ca         1 N26      -0.045500
      5 C5           0.2670     0.6000     0.1730 ca         1 N26      -0.045500
      6 C6          -0.6370     1.6870     0.1000 ca         1 N26      -0.156500
      7 C7          -1.9450     1.4990    -0.2490 ca         1 N26      -0.162000
      8 C16          0.6790    -1.7840    -0.0580 ca         1 N26      -0.156500
      9 C17          1.9890    -1.5930     0.2850 ca         1 N26      -0.162000
     10 C18          2.4820    -0.3020     0.6050 ca         1 N26       0.233600
     11 C19          1.6260     0.7710     0.5260 ca         1 N26      -0.214500
     12 P20         -4.9710    -0.1110     0.2060 p5         1 N26       1.287400
     13 O2           3.7540    -0.1600     1.0050 os         1 N26      -0.482000
     14 P3           4.9790     0.1480    -0.2050 p5         1 N26       1.287400
     15 O4          -4.8620     1.1540     1.0430 o          1 N26      -0.923833
     16 O5          -6.1750    -0.1910    -0.7160 o          1 N26      -0.923833
     17 O7          -4.6110    -1.3940     0.9350 o          1 N26      -0.923833
     18 O8           4.8400    -1.0190    -1.1680 o          1 N26      -0.923833
     19 O9           4.5920     1.5020    -0.7760 o          1 N26      -0.923833
     20 O10          6.2160     0.1350     0.6770 o          1 N26      -0.923833
     21 H3          -1.9470    -1.8600    -0.7180 ha         1 N26       0.117000
     22 H6          -0.2780     2.6830     0.3320 ha         1 N26       0.080000
     23 H7          -2.6240     2.3390    -0.3010 ha         1 N26       0.114000
     24 H16          0.3210    -2.7800    -0.2910 ha         1 N26       0.080000
     25 H17          2.6690    -2.4340     0.3340 ha         1 N26       0.114000
     26 H19          1.9910     1.7650     0.7560 ha         1 N26       0.117000
@<TRIPOS>BOND
     1     1     2 1   
     2     1    12 1   
     3     2     3 ar  
     4     2     7 ar  
     5     3     4 ar  
     6     3    21 1   
     7     4     5 ar  
     8     4     8 ar  
     9     5     6 ar  
    10     5    11 ar  
    11     6     7 ar  
    12     6    22 1   
    13     7    23 1   
    14     8     9 ar  
    15     8    24 1   
    16     9    10 ar  
    17     9    25 1   
    18    10    11 ar  
    19    10    13 1   
    20    11    26 1   
    21    12    15 1   
    22    12    16 1   
    23    12    17 1   
    24    13    14 1   
    25    14    18 1   
    26    14    19 1   
    27    14    20 1   
@<TRIPOS>SUBSTRUCTURE
     1 N26         1 TEMP              0 ****  ****    0 ROOT
