@<TRIPOS>MOLECULE
N26
   26    27     1     0     0
SMALL
No Charge or Current Charge


@<TRIPOS>ATOM
      1 O1          -3.8070    -0.5350    -0.4380 os         1 N26      -0.482000
      2 C2          -2.5220    -0.1430    -0.1440 ca         1 N26       0.233600
      3 C3          -1.4720    -0.9440    -0.6270 ca         1 N26      -0.196500
      4 C4          -0.1320    -0.6020    -0.3650 ca         1 N26      -0.045500
      5 C5           0.1630     0.5530     0.3890 ca         1 N26      -0.045500
      6 C6          -0.8830     1.3580     0.8750 ca         1 N26      -0.138500
      7 C7          -2.2210     1.0130     0.6110 ca         1 N26      -0.144000
      8 C16          0.9140    -1.4070    -0.8510 ca         1 N26      -0.138500
      9 C17          2.2520    -1.0630    -0.5860 ca         1 N26      -0.144000
     10 C18          2.5530     0.0940     0.1690 ca         1 N26       0.233600
     11 C19          1.5030     0.8950     0.6520 ca         1 N26      -0.196500
     12 P20         -5.1990     0.1720    -0.0270 p5         1 N26       1.287400
     13 O2           3.8380     0.4860     0.4630 os         1 N26      -0.482000
     14 P3           5.2300    -0.2210     0.0520 p5         1 N26       1.287400
     15 O4          -5.2630     1.5500    -0.5900 o          1 N26      -0.923833
     16 O5          -6.3280    -0.6300    -0.5790 o          1 N26      -0.923833
     17 O7          -5.3280     0.2300     1.4570 o          1 N26      -0.923833
     18 O8           5.2940    -1.5990     0.6150 o          1 N26      -0.923833
     19 O9           5.3590    -0.2790    -1.4320 o          1 N26      -0.923833
     20 O10          6.3590     0.5800     0.6040 o          1 N26      -0.923833
     21 H3          -1.7030    -1.8320    -1.2080 ha         1 N26       0.099000
     22 H6          -0.6630     2.2500     1.4570 ha         1 N26       0.062000
     23 H7          -3.0090     1.6510     0.9970 ha         1 N26       0.096000
     24 H16          0.6950    -2.2990    -1.4320 ha         1 N26       0.062000
     25 H17          3.0400    -1.7000    -0.9720 ha         1 N26       0.096000
     26 H19          1.7340     1.7840     1.2320 ha         1 N26       0.099000
@<TRIPOS>BOND
     1     1     2 1   
     2     1    12 1   
     3     2     3 ar  
     4     2     7 ar  
     5     3     4 ar  
     6     3    21 1   
     7     4     5 ar  
     8     4     8 ar  
     9     5     6 ar  
    10     5    11 ar  
    11     6     7 ar  
    12     6    22 1   
    13     7    23 1   
    14     8     9 ar  
    15     8    24 1   
    16     9    10 ar  
    17     9    25 1   
    18    10    11 ar  
    19    10    13 1   
    20    11    26 1   
    21    12    15 1   
    22    12    16 1   
    23    12    17 1   
    24    13    14 1   
    25    14    18 1   
    26    14    19 1   
    27    14    20 1   
@<TRIPOS>SUBSTRUCTURE
     1 N26         1 TEMP              0 ****  ****    0 ROOT
