@<TRIPOS>MOLECULE
N27
   69    72     1     0     0
SMALL
No Charge or Current Charge


@<TRIPOS>ATOM
      1 C01          3.7040    -0.4740     1.5660 c2         1 N27      -0.309000
      2 C02          3.0240     0.1650     0.5860 ce         1 N27      -0.045400
      3 C03          3.7420     0.2980    -0.7120 ca         1 N27      -0.057800
      4 C04          3.3990    -0.5260    -1.8000 ca         1 N27      -0.100000
      5 C05          4.0770    -0.4000    -3.0250 ca         1 N27      -0.114000
      6 C06          5.1070     0.5460    -3.1650 ca         1 N27      -0.110000
      7 C07          5.4600     1.3640    -2.0780 ca         1 N27      -0.114000
      8 C08          4.7800     1.2380    -0.8530 ca         1 N27      -0.100000
      9 C09          1.5510     0.6410     0.7020 c5         1 N27       0.029400
     10 C10          1.2070     1.7590    -0.3560 c5         1 N27      -0.079700
     11 C11          0.3590     1.0270    -1.4640 c5         1 N27      -0.043200
     12 C12         -0.1420    -0.2560    -0.8130 c2         1 N27      -0.103400
     13 C13         -1.2120    -1.1330    -1.4300 c3         1 N27      -0.033200
     14 C14         -2.6290    -0.5810    -1.1700 c3         1 N27      -0.073400
     15 C15         -3.7480    -1.4630    -1.7630 c3         1 N27      -0.077400
     16 C16         -5.1600    -0.9030    -1.4860 c3         1 N27      -0.075400
     17 C17         -6.2850    -1.7820    -2.0740 c3         1 N27      -0.074400
     18 C18         -7.6940    -1.2240    -1.7970 c3         1 N27      -0.089100
     19 C19          0.5260    -0.4240     0.3430 ce         1 N27      -0.072400
     20 C20          0.2810    -1.5980     1.2240 ca         1 N27      -0.036800
     21 C21         -0.8670    -1.6760     2.0350 ca         1 N27      -0.104500
     22 C22         -1.0910    -2.8020     2.8560 ca         1 N27      -0.112500
     23 C23         -0.1760    -3.8760     2.8860 ca         1 N27      -0.108000
     24 C24          0.9810    -3.8440     2.0890 ca         1 N27      -0.112500
     25 C25          1.1940    -2.6980     1.2620 ca         1 N27      -0.104500
     26 C26          0.3280     2.7970     0.4340 c5         1 N27       0.114700
     27 C29         -3.3670     2.3600     1.2890 c3         1 N27      -0.180100
     28 C31          1.0570     2.7920     1.8080 c5         1 N27      -0.096400
     29 C32          1.2460     1.2730     2.1160 c5         1 N27      -0.069400
     30 N27         -1.0110     2.2290     0.6800 ns         1 N27      -0.502900
     31 O30         -1.9020     4.2710     1.2170 o          1 N27      -0.614100
     32 H011         4.7250    -0.8230     1.4150 ha         1 N27       0.169500
     33 H012         3.2610    -0.6950     2.5360 ha         1 N27       0.169500
     34 H041         2.6050    -1.2610    -1.6950 ha         1 N27       0.116500
     35 H051         3.8050    -1.0370    -3.8640 ha         1 N27       0.112500
     36 H061         5.6320     0.6430    -4.1130 ha         1 N27       0.112000
     37 H071         6.2580     2.0950    -2.1840 ha         1 N27       0.112500
     38 H081         5.0550     1.8730    -0.0140 ha         1 N27       0.116500
     39 H101         2.0860     2.2680    -0.7670 hc         1 N27       0.070700
     40 H112        -0.4590     1.6450    -1.8500 hc         1 N27       0.062700
     41 H111         0.9820     0.7810    -2.3310 hc         1 N27       0.062700
     42 H132        -1.0460    -1.2150    -2.5110 hc         1 N27       0.053700
     43 H131        -1.1460    -2.1530    -1.0320 hc         1 N27       0.053700
     44 H142        -2.7820    -0.4900    -0.0880 hc         1 N27       0.036700
     45 H141        -2.7040     0.4290    -1.5910 hc         1 N27       0.036700
     46 H152        -3.6000    -1.5530    -2.8460 hc         1 N27       0.040200
     47 H151        -3.6710    -2.4730    -1.3420 hc         1 N27       0.040200
     48 H162        -5.3050    -0.8110    -0.4020 hc         1 N27       0.036700
     49 H161        -5.2360     0.1080    -1.9060 hc         1 N27       0.036700
     50 H172        -6.1450    -1.8740    -3.1580 hc         1 N27       0.037200
     51 H171        -6.2140    -2.7930    -1.6550 hc         1 N27       0.037200
     52 H181        -8.4580    -1.8790    -2.2320 hc         1 N27       0.032033
     53 H183        -7.8780    -1.1520    -0.7180 hc         1 N27       0.032033
     54 H182        -7.8090    -0.2250    -2.2350 hc         1 N27       0.032033
     55 H211        -1.5880    -0.8620     2.0330 ha         1 N27       0.115000
     56 H221        -1.9830    -2.8420     3.4770 ha         1 N27       0.112500
     57 H231        -0.3690    -4.7340     3.5270 ha         1 N27       0.113000
     58 H241         1.6920    -4.6670     2.1000 ha         1 N27       0.112500
     59 H251         2.0820    -2.6640     0.6350 ha         1 N27       0.115000
     60 H261         0.3020     3.7860    -0.0470 h1         1 N27       0.086700
     61 H291        -3.6830     1.8970     0.3480 hc         1 N27       0.058033
     62 H293        -3.2140     1.4910     1.9390 hc         1 N27       0.058033
     63 H292        -4.1410     3.0320     1.6770 hc         1 N27       0.058033
     64 H312         2.0270     3.2970     1.7310 hc         1 N27       0.055700
     65 H311         0.4930     3.3090     2.5920 hc         1 N27       0.055700
     66 H321         0.3400     0.8540     2.5680 hc         1 N27       0.051700
     67 H322         2.0400     1.1320     2.8540 hc         1 N27       0.051700
     68 H271        -1.2210     1.2450     0.5700 hn         1 N27       0.317500
     69 C28         -2.0360     3.0650     1.0650 c          1 N27       0.600100
@<TRIPOS>BOND
     1     1     2 2   
     2     1    32 1   
     3     1    33 1   
     4     2     3 1   
     5     2     9 1   
     6     3     4 ar  
     7     3     8 ar  
     8     4     5 ar  
     9     4    34 1   
    10     5     6 ar  
    11     5    35 1   
    12     6     7 ar  
    13     6    36 1   
    14     7     8 ar  
    15     7    37 1   
    16     8    38 1   
    17     9    10 1   
    18     9    19 1   
    19     9    29 1   
    20    10    11 1   
    21    10    26 1   
    22    10    39 1   
    23    11    12 1   
    24    11    40 1   
    25    11    41 1   
    26    12    13 1   
    27    12    19 2   
    28    13    14 1   
    29    13    42 1   
    30    13    43 1   
    31    14    15 1   
    32    14    44 1   
    33    14    45 1   
    34    15    16 1   
    35    15    46 1   
    36    15    47 1   
    37    16    17 1   
    38    16    48 1   
    39    16    49 1   
    40    17    18 1   
    41    17    50 1   
    42    17    51 1   
    43    18    52 1   
    44    18    53 1   
    45    18    54 1   
    46    19    20 1   
    47    20    21 ar  
    48    20    25 ar  
    49    21    22 ar  
    50    21    55 1   
    51    22    23 ar  
    52    22    56 1   
    53    23    24 ar  
    54    23    57 1   
    55    24    25 ar  
    56    24    58 1   
    57    25    59 1   
    58    26    28 1   
    59    26    30 1   
    60    26    60 1   
    61    27    61 1   
    62    27    62 1   
    63    27    63 1   
    64    27    69 1   
    65    28    29 1   
    66    28    64 1   
    67    28    65 1   
    68    29    66 1   
    69    29    67 1   
    70    30    68 1   
    71    30    69 1   
    72    31    69 2   
@<TRIPOS>SUBSTRUCTURE
     1 N27         1 TEMP              0 ****  ****    0 ROOT
