@<TRIPOS>MOLECULE
N27
   69    72     1     0     0
SMALL
bcc


@<TRIPOS>ATOM
      1 C01          4.0750     0.4650     1.4660 c2         1 N27      -0.209000
      2 C02          3.0530     0.3770     0.6170 ce         1 N27      -0.045400
      3 C03          3.3460     0.0730    -0.8120 ca         1 N27      -0.057800
      4 C04          2.9790    -1.1350    -1.4050 ca         1 N27      -0.118000
      5 C05          3.2600    -1.3840    -2.7410 ca         1 N27      -0.132000
      6 C06          3.9110    -0.4290    -3.5110 ca         1 N27      -0.128000
      7 C07          4.2920     0.7720    -2.9310 ca         1 N27      -0.132000
      8 C08          4.0130     1.0180    -1.5930 ca         1 N27      -0.118000
      9 C09          1.5980     0.6750     0.9590 c5         1 N27       0.029400
     10 C10          1.0910     1.8390     0.0430 c5         1 N27      -0.079700
     11 C11          0.3200     1.1740    -1.0910 c5         1 N27      -0.043200
     12 C12         -0.0520    -0.1720    -0.5340 c2         1 N27      -0.103400
     13 C13         -1.0540    -1.0100    -1.2580 c3         1 N27      -0.033200
     14 C14         -2.4900    -0.5080    -1.0770 c3         1 N27      -0.073400
     15 C15         -3.4880    -1.2210    -1.9790 c3         1 N27      -0.077400
     16 C16         -4.9200    -0.7440    -1.7680 c3         1 N27      -0.075400
     17 C17         -5.9270    -1.4430    -2.6730 c3         1 N27      -0.074400
     18 C18         -7.3560    -0.9720    -2.4390 c3         1 N27      -0.089100
     19 C19          0.6500    -0.4570     0.5740 ce         1 N27      -0.072400
     20 C20          0.5380    -1.6770     1.3890 ca         1 N27      -0.036800
     21 C21         -0.7150    -2.1880     1.7410 ca         1 N27      -0.122500
     22 C22         -0.8350    -3.3410     2.5030 ca         1 N27      -0.130500
     23 C23          0.3000    -4.0080     2.9450 ca         1 N27      -0.126000
     24 C24          1.5520    -3.5010     2.6260 ca         1 N27      -0.130500
     25 C25          1.6700    -2.3470     1.8640 ca         1 N27      -0.122500
     26 C26          0.2750     2.7560     0.9680 c5         1 N27       0.114700
     27 C29         -3.5040     2.4700     1.2450 c3         1 N27      -0.180100
     28 C31          1.0380     2.6480     2.2870 c5         1 N27      -0.096400
     29 C32          1.3450     1.1580     2.4100 c5         1 N27      -0.069400
     30 N27         -1.1010     2.3190     1.0970 ns         1 N27      -0.569900
     31 O30         -2.0580     4.3670     1.1260 o          1 N27      -0.614100
     32 H011         5.0890     0.2820     1.1310 ha         1 N27       0.119500
     33 H012         3.9590     0.7070     2.5130 ha         1 N27       0.119500
     34 H041         2.4780    -1.8990    -0.8260 ha         1 N27       0.134500
     35 H051         2.9710    -2.3300    -3.1800 ha         1 N27       0.130500
     36 H061         4.1260    -0.6240    -4.5540 ha         1 N27       0.130000
     37 H071         4.8070     1.5220    -3.5180 ha         1 N27       0.130500
     38 H081         4.3090     1.9600    -1.1480 ha         1 N27       0.134500
     39 H101         1.9280     2.4310    -0.3310 hc         1 N27       0.070700
     40 H112        -0.5510     1.7540    -1.4130 hc         1 N27       0.062700
     41 H111         0.9460     1.0450    -1.9800 hc         1 N27       0.062700
     42 H132        -0.8080    -0.9820    -2.3250 hc         1 N27       0.053700
     43 H131        -0.9900    -2.0560    -0.9530 hc         1 N27       0.053700
     44 H142        -2.7950    -0.6420    -0.0330 hc         1 N27       0.036700
     45 H141        -2.5350     0.5690    -1.2690 hc         1 N27       0.036700
     46 H152        -3.2020    -1.0690    -3.0250 hc         1 N27       0.040200
     47 H151        -3.4320    -2.3000    -1.8000 hc         1 N27       0.040200
     48 H162        -5.2040    -0.8990    -0.7220 hc         1 N27       0.036700
     49 H161        -4.9720     0.3370    -1.9380 hc         1 N27       0.036700
     50 H172        -5.6530    -1.2740    -3.7190 hc         1 N27       0.037200
     51 H171        -5.8660    -2.5240    -2.5140 hc         1 N27       0.037200
     52 H181        -8.0610    -1.4860    -3.0940 hc         1 N27       0.032033
     53 H183        -7.6690    -1.1540    -1.4090 hc         1 N27       0.032033
     54 H182        -7.4540     0.0990    -2.6280 hc         1 N27       0.032033
     55 H211        -1.6120    -1.6650     1.4360 ha         1 N27       0.133000
     56 H221        -1.8190    -3.7130     2.7570 ha         1 N27       0.130500
     57 H231         0.2090    -4.9070     3.5410 ha         1 N27       0.131000
     58 H241         2.4460    -4.0050     2.9700 ha         1 N27       0.130500
     59 H251         2.6570    -1.9700     1.6350 ha         1 N27       0.133000
     60 H261         0.2570     3.7770     0.5860 h1         1 N27       0.086700
     61 H291        -4.0780     2.6930     0.3460 hc         1 N27       0.058033
     62 H293        -3.4480     1.3880     1.3510 hc         1 N27       0.058033
     63 H292        -4.0580     2.8720     2.0930 hc         1 N27       0.058033
     64 H312         1.9640     3.2240     2.2100 hc         1 N27       0.055700
     65 H311         0.4760     3.0460     3.1340 hc         1 N27       0.055700
     66 H321         0.4820     0.6300     2.8240 hc         1 N27       0.051700
     67 H322         2.1630     0.9620     3.0980 hc         1 N27       0.051700
     68 H271        -1.2710     1.3270     1.1400 hn         1 N27       0.317500
     69 C28         -2.1580     3.1470     1.1560 c          1 N27       0.667100
@<TRIPOS>BOND
     1     1     2 2   
     2     1    32 1   
     3     1    33 1   
     4     2     3 1   
     5     2     9 1   
     6     3     4 ar  
     7     3     8 ar  
     8     4     5 ar  
     9     4    34 1   
    10     5     6 ar  
    11     5    35 1   
    12     6     7 ar  
    13     6    36 1   
    14     7     8 ar  
    15     7    37 1   
    16     8    38 1   
    17     9    10 1   
    18     9    19 1   
    19     9    29 1   
    20    10    11 1   
    21    10    26 1   
    22    10    39 1   
    23    11    12 1   
    24    11    40 1   
    25    11    41 1   
    26    12    13 1   
    27    12    19 2   
    28    13    14 1   
    29    13    42 1   
    30    13    43 1   
    31    14    15 1   
    32    14    44 1   
    33    14    45 1   
    34    15    16 1   
    35    15    46 1   
    36    15    47 1   
    37    16    17 1   
    38    16    48 1   
    39    16    49 1   
    40    17    18 1   
    41    17    50 1   
    42    17    51 1   
    43    18    52 1   
    44    18    53 1   
    45    18    54 1   
    46    19    20 1   
    47    20    21 ar  
    48    20    25 ar  
    49    21    22 ar  
    50    21    55 1   
    51    22    23 ar  
    52    22    56 1   
    53    23    24 ar  
    54    23    57 1   
    55    24    25 ar  
    56    24    58 1   
    57    25    59 1   
    58    26    28 1   
    59    26    30 1   
    60    26    60 1   
    61    27    61 1   
    62    27    62 1   
    63    27    63 1   
    64    27    69 1   
    65    28    29 1   
    66    28    64 1   
    67    28    65 1   
    68    29    66 1   
    69    29    67 1   
    70    30    68 1   
    71    30    69 1   
    72    31    69 2   
@<TRIPOS>SUBSTRUCTURE
     1 N27         1 TEMP              0 ****  ****    0 ROOT
