@<TRIPOS>MOLECULE
N28
   54    55     1     0     0
SMALL
No Charge or Current Charge


@<TRIPOS>ATOM
      1 N1          -6.1630   -14.6550    11.9740 n8         1 N28      -0.999200
      2 C1          -4.9150   -13.9880    11.5620 c3         1 N28       0.202100
      3 C2          -4.9530   -13.6020    10.0900 ca         1 N28      -0.110300
      4 C3          -5.3370   -12.3050     9.7020 ca         1 N28      -0.077500
      5 C4          -5.3630   -11.9500     8.3420 ca         1 N28      -0.141000
      6 C5          -5.0020   -12.8790     7.3490 ca         1 N28      -0.016000
      7 N2          -5.0570   -12.4490     5.9970 ns         1 N28      -0.164000
      8 C6          -4.5920   -13.0080     4.8130 c          1 N28       0.662100
      9 O1          -3.9640   -14.0580     4.7670 o          1 N28      -0.625100
     10 N3          -4.8850   -12.2740     3.6360 n          1 N28      -0.430800
     11 C7          -4.4360   -12.7550     2.3070 c3         1 N28       0.112000
     12 C8          -5.5580   -13.4150     1.4740 c3         1 N28      -0.093400
     13 C9          -6.1640   -14.6830     2.1270 c3         1 N28      -0.074400
     14 C10         -7.2200   -15.3970     1.2560 c3         1 N28       0.161600
     15 O2          -8.3740   -14.5660     1.0870 oh         1 N28      -0.666000
     16 C11         -5.6640   -11.0090     3.6670 c3         1 N28       0.139300
     17 C12         -4.9880    -9.8780     4.4360 ca         1 N28      -0.100300
     18 C13         -5.6910    -9.1780     5.4340 ca         1 N28      -0.113500
     19 C14         -5.0640    -8.1500     6.1570 ca         1 N28      -0.068500
     20 C15         -3.7210    -7.7940     5.8970 ca         1 N28      -0.154600
     21 C16         -3.0780    -6.6780     6.7000 c          1 N28       0.610700
     22 O3          -3.6660    -6.1180     7.6180 o          1 N28      -0.561100
     23 N4          -1.7750    -6.3280     6.3540 ns         1 N28      -0.377400
     24 O4          -1.1580    -5.1260     6.8800 oh         1 N28      -0.430100
     25 C17         -3.0210    -8.5020     4.8890 ca         1 N28      -0.068500
     26 C18         -3.6520    -9.5310     4.1690 ca         1 N28      -0.113500
     27 C19         -4.6230   -14.1810     7.7390 ca         1 N28      -0.141000
     28 C20         -4.5980   -14.5370     9.1000 ca         1 N28      -0.077500
     29 H1          -6.1350   -14.8110    12.9890 hn         1 N28       0.395500
     30 H27         -6.9400   -13.9970    11.8490 hn         1 N28       0.395500
     31 H4          -4.0710   -14.6670    11.7480 h1         1 N28       0.033200
     32 H3          -4.7720   -13.0900    12.1800 h1         1 N28       0.033200
     33 H5          -5.6160   -11.5700    10.4550 ha         1 N28       0.119500
     34 H6          -5.6620   -10.9420     8.0610 ha         1 N28       0.123000
     35 H7          -5.5120   -11.5550     5.8740 hn         1 N28       0.152000
     36 H9          -3.6050   -13.4640     2.4180 h1         1 N28       0.058200
     37 H8          -4.0400   -11.8990     1.7440 h1         1 N28       0.058200
     38 H11         -5.1490   -13.6800     0.4920 hc         1 N28       0.047200
     39 H10         -6.3520   -12.6790     1.2950 hc         1 N28       0.047200
     40 H12         -5.3550   -15.3930     2.3390 hc         1 N28       0.057200
     41 H13         -6.6160   -14.4240     3.0920 hc         1 N28       0.057200
     42 H15         -7.5050   -16.3380     1.7450 h1         1 N28       0.017200
     43 H14         -6.7790   -15.6470     0.2820 h1         1 N28       0.017200
     44 H16         -9.0080   -15.0700     0.5300 ho         1 N28       0.440000
     45 H17         -5.8400   -10.6650     2.6390 h1         1 N28       0.065700
     46 H18         -6.6510   -11.2180     4.1000 h1         1 N28       0.065700
     47 H19         -6.7260    -9.4300     5.6540 ha         1 N28       0.125000
     48 H20         -5.6320    -7.6270     6.9240 ha         1 N28       0.128500
     49 H21         -1.3730    -6.6950     5.4940 hn         1 N28       0.334500
     50 H22         -0.2840    -5.4400     7.2160 ho         1 N28       0.450000
     51 H23         -1.9850    -8.2760     4.6540 ha         1 N28       0.128500
     52 H24         -3.0950   -10.0640     3.4020 ha         1 N28       0.125000
     53 H25         -4.3560   -14.9350     7.0050 ha         1 N28       0.123000
     54 H26         -4.3060   -15.5460     9.3860 ha         1 N28       0.119500
@<TRIPOS>BOND
     1     1     2 1   
     2     1    29 1   
     3     1    30 1   
     4     2     3 1   
     5     2    31 1   
     6     2    32 1   
     7     3     4 ar  
     8     3    28 ar  
     9     4     5 ar  
    10     4    33 1   
    11     5     6 ar  
    12     5    34 1   
    13     6     7 1   
    14     6    27 ar  
    15     7     8 1   
    16     7    35 1   
    17     8     9 2   
    18     8    10 1   
    19    10    11 1   
    20    10    16 1   
    21    11    12 1   
    22    11    36 1   
    23    11    37 1   
    24    12    13 1   
    25    12    38 1   
    26    12    39 1   
    27    13    14 1   
    28    13    40 1   
    29    13    41 1   
    30    14    15 1   
    31    14    42 1   
    32    14    43 1   
    33    15    44 1   
    34    16    17 1   
    35    16    45 1   
    36    16    46 1   
    37    17    18 ar  
    38    17    26 ar  
    39    18    19 ar  
    40    18    47 1   
    41    19    20 ar  
    42    19    48 1   
    43    20    21 1   
    44    20    25 ar  
    45    21    22 2   
    46    21    23 1   
    47    23    24 1   
    48    23    49 1   
    49    24    50 1   
    50    25    26 ar  
    51    25    51 1   
    52    26    52 1   
    53    27    28 ar  
    54    27    53 1   
    55    28    54 1   
@<TRIPOS>SUBSTRUCTURE
     1 N28         1 TEMP              0 ****  ****    0 ROOT
