@<TRIPOS>MOLECULE
N28
   54    55     1     0     0
SMALL
abcg2


@<TRIPOS>ATOM
      1 N1          -5.8220   -15.4570    11.7840 n8         1 N28      -0.999200
      2 C1          -4.9190   -14.3480    11.5290 c3         1 N28       0.202100
      3 C2          -5.0250   -13.8520    10.1100 ca         1 N28      -0.110300
      4 C3          -4.9360   -12.4950     9.8190 ca         1 N28      -0.077500
      5 C4          -4.9900   -12.0340     8.5130 ca         1 N28      -0.141000
      6 C5          -5.1570   -12.9220     7.4530 ca         1 N28      -0.016000
      7 N2          -5.2720   -12.3920     6.1610 ns         1 N28      -0.164000
      8 C6          -4.7290   -12.9500     5.0270 c          1 N28       0.662100
      9 O1          -4.1370   -14.0190     5.0520 o          1 N28      -0.625100
     10 N3          -4.9050   -12.2270     3.8850 n          1 N28      -0.430800
     11 C7          -4.3790   -12.7200     2.6200 c3         1 N28       0.112000
     12 C8          -5.4460   -13.3450     1.7260 c3         1 N28      -0.093400
     13 C9          -6.0720   -14.6070     2.3050 c3         1 N28      -0.074400
     14 C10         -7.1000   -15.2500     1.3950 c3         1 N28       0.161600
     15 O2          -8.1910   -14.3700     1.2210 oh         1 N28      -0.666000
     16 C11         -5.6640   -10.9980     3.8450 c3         1 N28       0.139300
     17 C12         -4.9650    -9.8030     4.4550 ca         1 N28      -0.100300
     18 C13         -5.7200    -8.7070     4.8660 ca         1 N28      -0.113500
     19 C14         -5.1090    -7.5890     5.4080 ca         1 N28      -0.068500
     20 C15         -3.7240    -7.5380     5.5440 ca         1 N28      -0.154600
     21 C16         -3.1270    -6.3120     6.1510 c          1 N28       0.610700
     22 O3          -3.7590    -5.5800     6.8900 o          1 N28      -0.561100
     23 N4          -1.8310    -6.1030     5.8310 ns         1 N28      -0.377400
     24 O4          -1.2410    -4.9350     6.2100 oh         1 N28      -0.430100
     25 C17         -2.9680    -8.6390     5.1470 ca         1 N28      -0.068500
     26 C18         -3.5840    -9.7580     4.6090 ca         1 N28      -0.113500
     27 C19         -5.2720   -14.2840     7.7340 ca         1 N28      -0.141000
     28 C20         -5.1990   -14.7310     9.0430 ca         1 N28      -0.077500
     29 H1          -5.6470   -15.8270    12.7100 hn         1 N28       0.395500
     30 H27         -6.7760   -15.1200    11.7930 hn         1 N28       0.395500
     31 H4          -3.8980   -14.7050    11.7020 h1         1 N28       0.033200
     32 H3          -5.0550   -13.4970    12.2090 h1         1 N28       0.033200
     33 H5          -4.8190   -11.7780    10.6230 ha         1 N28       0.119500
     34 H6          -4.9070   -10.9710     8.3190 ha         1 N28       0.123000
     35 H7          -5.5400   -11.4210     6.1400 hn         1 N28       0.152000
     36 H9          -3.5890   -13.4400     2.8230 h1         1 N28       0.058200
     37 H8          -3.9150   -11.8800     2.0990 h1         1 N28       0.058200
     38 H11         -4.9750   -13.5790     0.7660 hc         1 N28       0.047200
     39 H10         -6.2210   -12.6040     1.5100 hc         1 N28       0.047200
     40 H12         -5.2910   -15.3480     2.4950 hc         1 N28       0.057200
     41 H13         -6.5360   -14.3940     3.2720 hc         1 N28       0.057200
     42 H15         -7.4230   -16.2000     1.8410 h1         1 N28       0.017200
     43 H14         -6.6280   -15.4980     0.4340 h1         1 N28       0.017200
     44 H16         -8.8190   -14.7870     0.6250 ho         1 N28       0.440000
     45 H17         -5.8720   -10.7740     2.7980 h1         1 N28       0.065700
     46 H18         -6.6490   -11.1290     4.3050 h1         1 N28       0.065700
     47 H19         -6.7990    -8.7300     4.7680 ha         1 N28       0.125000
     48 H20         -5.7140    -6.7510     5.7280 ha         1 N28       0.128500
     49 H21         -1.4050    -6.5310     5.0220 hn         1 N28       0.334500
     50 H22         -0.7250    -5.1410     7.0000 ho         1 N28       0.450000
     51 H23         -1.8940    -8.6540     5.2760 ha         1 N28       0.128500
     52 H24         -2.9760   -10.6060     4.3210 ha         1 N28       0.125000
     53 H25         -5.4320   -14.9980     6.9400 ha         1 N28       0.123000
     54 H26         -5.2990   -15.7900     9.2420 ha         1 N28       0.119500
@<TRIPOS>BOND
     1     1     2 1   
     2     1    29 1   
     3     1    30 1   
     4     2     3 1   
     5     2    31 1   
     6     2    32 1   
     7     3     4 ar  
     8     3    28 ar  
     9     4     5 ar  
    10     4    33 1   
    11     5     6 ar  
    12     5    34 1   
    13     6     7 1   
    14     6    27 ar  
    15     7     8 1   
    16     7    35 1   
    17     8     9 2   
    18     8    10 1   
    19    10    11 1   
    20    10    16 1   
    21    11    12 1   
    22    11    36 1   
    23    11    37 1   
    24    12    13 1   
    25    12    38 1   
    26    12    39 1   
    27    13    14 1   
    28    13    40 1   
    29    13    41 1   
    30    14    15 1   
    31    14    42 1   
    32    14    43 1   
    33    15    44 1   
    34    16    17 1   
    35    16    45 1   
    36    16    46 1   
    37    17    18 ar  
    38    17    26 ar  
    39    18    19 ar  
    40    18    47 1   
    41    19    20 ar  
    42    19    48 1   
    43    20    21 1   
    44    20    25 ar  
    45    21    22 2   
    46    21    23 1   
    47    23    24 1   
    48    23    49 1   
    49    24    50 1   
    50    25    26 ar  
    51    25    51 1   
    52    26    52 1   
    53    27    28 ar  
    54    27    53 1   
    55    28    54 1   
@<TRIPOS>SUBSTRUCTURE
     1 N28         1 TEMP              0 ****  ****    0 ROOT
