@<TRIPOS>MOLECULE
N29
   21    21     1     0     0
SMALL
bcc


@<TRIPOS>ATOM
      1 C1          10.1520    12.9890    44.1510 c3         1 N29      -0.137400
      2 C2           9.1780    12.2480    43.3190 cc         1 N29       0.300000
      3 C3           8.5730    11.0460    43.4720 cd         1 N29      -0.390600
      4 C6           6.6890     8.7540    42.5510 c          1 N29       0.680100
      5 C8           5.6520     7.8840    41.8760 c3         1 N29      -0.156400
      6 C9           5.6750     6.4400    42.3430 c3         1 N29      -0.078100
      7 O7           7.2690     8.4430    43.5710 o          1 N29      -0.563100
      8 C4           7.7560    10.9450    42.3140 cd         1 N29       0.472200
      9 O11          8.7690    12.8140    42.1830 os         1 N29      -0.111100
     10 N10          7.8760    11.9980    41.5510 nc         1 N29      -0.437300
     11 H12         11.0740    13.1840    43.6020 hc         1 N29       0.063033
     12 H13          9.7470    13.9480    44.4740 hc         1 N29       0.063033
     13 H14         10.3980    12.4070    45.0370 hc         1 N29       0.063033
     14 H15          8.6920    10.3510    44.2820 ha         1 N29       0.193000
     15 H17          5.7850     7.9380    40.7920 hc         1 N29       0.061200
     16 H20          4.6730     8.3310    42.0740 hc         1 N29       0.061200
     17 H18          4.9030     5.8730    41.8250 hc         1 N29       0.045700
     18 H19          6.6320     5.9650    42.1320 hc         1 N29       0.045700
     19 H1           5.4850     6.3580    43.4120 hc         1 N29       0.045700
     20 H16          6.3950    10.1200    41.0570 hn         1 N29       0.335500
     21 N5           6.9010     9.9440    41.9130 ns         1 N29      -0.553400
@<TRIPOS>BOND
     1     1     2 1   
     2     1    11 1   
     3     1    12 1   
     4     1    13 1   
     5     2     3 2   
     6     2     9 1   
     7     3     8 1   
     8     3    14 1   
     9     4     5 1   
    10     4     7 2   
    11     4    21 1   
    12     5     6 1   
    13     5    15 1   
    14     5    16 1   
    15     6    17 1   
    16     6    18 1   
    17     6    19 1   
    18     8    10 2   
    19     8    21 1   
    20     9    10 1   
    21    20    21 1   
@<TRIPOS>SUBSTRUCTURE
     1 N29         1 TEMP              0 ****  ****    0 ROOT
