@<TRIPOS>MOLECULE
N29
   21    21     1     0     0
SMALL
No Charge or Current Charge


@<TRIPOS>ATOM
      1 C1          10.2060    12.9100    44.1460 c3         1 N29      -0.137400
      2 C2           9.2930    12.1540    43.2270 cc         1 N29       0.190300
      3 C3           8.4430    11.1200    43.4530 cd         1 N29      -0.242000
      4 C6           6.3570     8.9410    42.8420 c          1 N29       0.613100
      5 C8           5.3380     7.9940    42.1960 c3         1 N29      -0.156400
      6 C9           5.9000     6.5630    42.0510 c3         1 N29      -0.078100
      7 O7           6.6070     8.8960    44.0370 o          1 N29      -0.563100
      8 C4           7.8520    10.8280    42.2100 cd         1 N29       0.406900
      9 O11          9.2340    12.4900    41.8970 os         1 N29      -0.066700
     10 N10          8.2870    11.6130    41.2460 nc         1 N29      -0.437300
     11 H12         11.2480    12.8190    43.8180 hc         1 N29       0.063033
     12 H13          9.9440    13.9740    44.1630 hc         1 N29       0.063033
     13 H14         10.1370    12.5260    45.1700 hc         1 N29       0.063033
     14 H15          8.2750    10.6380    44.4060 ha         1 N29       0.175000
     15 H17          5.0590     8.3560    41.1990 hc         1 N29       0.061200
     16 H20          4.4480     7.9490    42.8340 hc         1 N29       0.061200
     17 H18          5.1550     5.9030    41.5900 hc         1 N29       0.045700
     18 H19          6.7970     6.5590    41.4190 hc         1 N29       0.045700
     19 H1           6.1660     6.1470    43.0300 hc         1 N29       0.045700
     20 H16          6.6010     9.7550    41.0220 hn         1 N29       0.335500
     21 N5           6.9250     9.8450    41.9740 ns         1 N29      -0.486400
@<TRIPOS>BOND
     1     1     2 1   
     2     1    11 1   
     3     1    12 1   
     4     1    13 1   
     5     2     3 2   
     6     2     9 1   
     7     3     8 1   
     8     3    14 1   
     9     4     5 1   
    10     4     7 2   
    11     4    21 1   
    12     5     6 1   
    13     5    15 1   
    14     5    16 1   
    15     6    17 1   
    16     6    18 1   
    17     6    19 1   
    18     8    10 2   
    19     8    21 1   
    20     9    10 1   
    21    20    21 1   
@<TRIPOS>SUBSTRUCTURE
     1 N29         1 TEMP              0 ****  ****    0 ROOT
