@<TRIPOS>MOLECULE
N2A
   79    84     1     0     0
SMALL
abcg2


@<TRIPOS>ATOM
      1 C1          10.0680     2.3530    -0.2600 ca         1 N2A       0.118000
      2 C2           8.9490     1.5300    -0.3470 ca         1 N2A      -0.107000
      3 C3           8.5830     0.8570     0.8020 ca         1 N2A       0.015600
      4 C4           9.3110     1.0000     1.9890 ca         1 N2A       0.004600
      5 C5          10.4180     1.8200     2.0620 ca         1 N2A      -0.103000
      6 C6          10.7970     2.5060     0.9100 ca         1 N2A      -0.103000
      7 N13          8.7040     0.2030     2.9300 n          1 N2A      -0.293000
      8 C14          7.6170    -0.4330     2.3770 c          1 N2A       0.596000
      9 N15          7.5520    -0.0200     1.0620 n          1 N2A      -0.291000
     10 C20          6.5560    -0.4570     0.0950 c6         1 N2A       0.140700
     11 C22          9.1290     0.0590     4.2990 c3         1 N2A       0.104300
     12 CL24        10.5650     3.2200    -1.6800 cl         1 N2A      -0.202000
     13 C26          6.6380    -1.9490    -0.2080 c6         1 N2A      -0.093400
     14 C27          5.6000    -2.3140    -1.2590 c6         1 N2A       0.169300
     15 N28          4.2620    -1.9540    -0.8230 n3         1 N2A      -0.718600
     16 C29          4.1660    -0.5230    -0.5960 c6         1 N2A       0.169300
     17 C30          5.1350    -0.0670     0.4840 c6         1 N2A      -0.093400
     18 C37          3.2520    -2.4360    -1.7460 c3         1 N2A       0.174800
     19 C39          1.8580    -2.4620    -1.1320 c3         1 N2A      -0.097400
     20 C41          0.8590    -3.0930    -2.0910 c3         1 N2A       0.085000
     21 N43         -0.5000    -3.0730    -1.5510 n          1 N2A      -0.311300
     22 C45         -1.2580    -1.9080    -1.6880 c          1 N2A       0.561200
     23 C46         -2.5660    -1.9890    -1.0740 cc         1 N2A      -0.205400
     24 C47         -2.9180    -3.1410    -0.4380 cd         1 N2A       0.090600
     25 N48         -2.1320    -4.2400    -0.3460 nd         1 N2A      -0.634300
     26 C49         -0.9680    -4.1550    -0.9000 cc         1 N2A       0.504800
     27 O56         -0.8090    -0.9460    -2.2880 o          1 N2A      -0.536000
     28 O58          6.8680    -1.2070     2.9430 o          1 N2A      -0.558000
     29 C60         -3.4880    -0.8450    -1.1520 ca         1 N2A      -0.028800
     30 C62         -3.0650     0.4590    -0.8970 ca         1 N2A      -0.063000
     31 C63         -3.9650     1.5100    -0.9330 ca         1 N2A      -0.109000
     32 C64         -5.2960     1.2670    -1.2300 ca         1 N2A       0.136000
     33 C65         -5.7570    -0.0200    -1.4930 ca         1 N2A      -0.111300
     34 C66         -4.8330    -1.0560    -1.4510 ca         1 N2A      -0.090000
     35 CL73        -6.3910     2.6080    -1.2870 cl         1 N2A      -0.186000
     36 C75         -7.2010    -0.3110    -1.8010 c3         1 N2A       0.150300
     37 N77         -8.0310    -0.0720    -0.6430 ns         1 N2A      -0.502900
     38 C79         -9.1520     0.6700    -0.6600 c          1 N2A       0.622700
     39 O81         -9.6430     1.1290    -1.6820 o          1 N2A      -0.595100
     40 C83         -9.7870     0.9040     0.6710 ca         1 N2A      -0.168600
     41 C85        -11.1660     1.0930     0.7260 ca         1 N2A      -0.046000
     42 C86        -11.8030     1.3250     1.9330 ca         1 N2A      -0.163500
     43 C87        -11.0370     1.3900     3.0820 ca         1 N2A       0.192000
     44 C88         -9.6650     1.2320     3.0630 ca         1 N2A      -0.163500
     45 C89         -9.0450     0.9860     1.8470 ca         1 N2A      -0.046000
     46 F96        -11.6460     1.6210     4.2520 f          1 N2A      -0.175000
     47 H2           8.4030     1.4320    -1.2750 ha         1 N2A       0.137000
     48 H5          10.9830     1.9340     2.9770 ha         1 N2A       0.128000
     49 H6          11.6610     3.1560     0.9330 ha         1 N2A       0.133000
     50 H20          6.7970     0.0740    -0.8300 h1         1 N2A       0.051700
     51 H22          8.9940     0.9900     4.8500 h1         1 N2A       0.052367
     52 H22A         8.5360    -0.7160     4.7740 h1         1 N2A       0.052367
     53 H22B        10.1780    -0.2290     4.3420 h1         1 N2A       0.052367
     54 H26          7.6350    -2.2030    -0.5750 hc         1 N2A       0.067450
     55 H26A         6.4590    -2.5300     0.6970 hc         1 N2A       0.067450
     56 H27          5.8620    -1.8250    -2.2150 h1         1 N2A       0.033950
     57 H27A         5.6360    -3.3910    -1.4390 h1         1 N2A       0.033950
     58 H29          4.3590     0.0420    -1.5260 h1         1 N2A       0.033950
     59 H29A         3.1510    -0.2690    -0.2850 h1         1 N2A       0.033950
     60 H30          4.8620    -0.5280     1.4340 hc         1 N2A       0.067450
     61 H30A         5.0620     1.0160     0.6060 hc         1 N2A       0.067450
     62 H37          3.2350    -1.8450    -2.6790 h1         1 N2A       0.031700
     63 H37A         3.5220    -3.4560    -2.0360 h1         1 N2A       0.031700
     64 H39          1.8870    -3.0390    -0.2050 hc         1 N2A       0.063200
     65 H39A         1.5260    -1.4550    -0.8760 hc         1 N2A       0.063200
     66 H41          0.8500    -2.5760    -3.0490 h1         1 N2A       0.066200
     67 H41A         1.1200    -4.1330    -2.2870 h1         1 N2A       0.066200
     68 H47         -3.8830    -3.2140     0.0530 h4         1 N2A       0.214000
     69 H49         -0.2960    -5.0050    -0.8570 h5         1 N2A       0.051800
     70 H62         -2.0340     0.6660    -0.6490 ha         1 N2A       0.131000
     71 H63         -3.6280     2.5170    -0.7270 ha         1 N2A       0.133000
     72 H66         -5.1780    -2.0590    -1.6730 ha         1 N2A       0.115000
     73 H75         -7.5610     0.3140    -2.6180 h1         1 N2A       0.069200
     74 H75A        -7.2960    -1.3490    -2.1270 h1         1 N2A       0.069200
     75 HN77        -7.7620    -0.5330     0.2100 hn         1 N2A       0.315500
     76 H85        -11.7550     1.0480    -0.1800 ha         1 N2A       0.129000
     77 H86        -12.8760     1.4540     1.9800 ha         1 N2A       0.136000
     78 H88         -9.0870     1.3060     3.9740 ha         1 N2A       0.136000
     79 H89         -7.9680     0.8860     1.8320 ha         1 N2A       0.129000
@<TRIPOS>BOND
     1     1     2 ar  
     2     1     6 ar  
     3     1    12 1   
     4     2     3 ar  
     5     2    47 1   
     6     3     4 ar  
     7     3     9 1   
     8     4     5 ar  
     9     4     7 1   
    10     5     6 ar  
    11     5    48 1   
    12     6    49 1   
    13     7     8 1   
    14     7    11 1   
    15     8     9 1   
    16     8    28 2   
    17     9    10 1   
    18    10    13 1   
    19    10    17 1   
    20    10    50 1   
    21    11    51 1   
    22    11    52 1   
    23    11    53 1   
    24    13    14 1   
    25    13    54 1   
    26    13    55 1   
    27    14    15 1   
    28    14    56 1   
    29    14    57 1   
    30    15    16 1   
    31    15    18 1   
    32    16    17 1   
    33    16    58 1   
    34    16    59 1   
    35    17    60 1   
    36    17    61 1   
    37    18    19 1   
    38    18    62 1   
    39    18    63 1   
    40    19    20 1   
    41    19    64 1   
    42    19    65 1   
    43    20    21 1   
    44    20    66 1   
    45    20    67 1   
    46    21    22 1   
    47    21    26 1   
    48    22    23 1   
    49    22    27 2   
    50    23    24 2   
    51    23    29 1   
    52    24    25 1   
    53    24    68 1   
    54    25    26 2   
    55    26    69 1   
    56    29    30 ar  
    57    29    34 ar  
    58    30    31 ar  
    59    30    70 1   
    60    31    32 ar  
    61    31    71 1   
    62    32    33 ar  
    63    32    35 1   
    64    33    34 ar  
    65    33    36 1   
    66    34    72 1   
    67    36    37 1   
    68    36    73 1   
    69    36    74 1   
    70    37    38 1   
    71    37    75 1   
    72    38    39 2   
    73    38    40 1   
    74    40    41 ar  
    75    40    45 ar  
    76    41    42 ar  
    77    41    76 1   
    78    42    43 ar  
    79    42    77 1   
    80    43    44 ar  
    81    43    46 1   
    82    44    45 ar  
    83    44    78 1   
    84    45    79 1   
@<TRIPOS>SUBSTRUCTURE
     1 N2A         1 TEMP              0 ****  ****    0 ROOT
