@<TRIPOS>MOLECULE
N2A
   79    84     1     0     0
SMALL
No Charge or Current Charge


@<TRIPOS>ATOM
      1 C1          10.3270     2.3640    -0.5090 ca         1 N2A       0.118000
      2 C2           9.1980     1.5230    -0.4440 ca         1 N2A      -0.107000
      3 C3           9.1560     0.5450     0.5630 ca         1 N2A       0.015600
      4 C4          10.1430     0.4870     1.5410 ca         1 N2A       0.004600
      5 C5          11.2200     1.3850     1.5520 ca         1 N2A      -0.103000
      6 C6          11.3350     2.2960     0.4800 ca         1 N2A      -0.103000
      7 N13          9.6350    -0.3080     2.6020 n          1 N2A      -0.293000
      8 C14          8.3510    -0.7720     2.2930 c          1 N2A       0.596000
      9 N15          8.0470    -0.2200     1.0340 n          1 N2A      -0.291000
     10 C20          6.9030    -0.6070     0.1770 c6         1 N2A       0.140700
     11 C22         10.4400    -0.8170     3.7260 c3         1 N2A       0.104300
     12 Cl24        10.4420     3.5670    -1.7860 cl         1 N2A      -0.202000
     13 C26          6.8100    -2.1260    -0.0920 c6         1 N2A      -0.093400
     14 C27          5.6210    -2.4300    -1.0280 c6         1 N2A       0.169300
     15 N28          4.3380    -1.9080    -0.4770 n3         1 N2A      -0.718600
     16 C29          4.4060    -0.4330    -0.2490 c6         1 N2A       0.169300
     17 C30          5.5630    -0.0530     0.7020 c6         1 N2A      -0.093400
     18 C37          3.1800    -2.3300    -1.3020 c3         1 N2A       0.174800
     19 C39          1.8010    -2.0540    -0.6660 c3         1 N2A      -0.097400
     20 C41          0.6430    -2.6810    -1.4680 c3         1 N2A       0.085000
     21 N43         -0.6820    -2.4200    -0.8590 n          1 N2A      -0.311300
     22 C45         -1.4590    -1.3690    -1.3290 c          1 N2A       0.561200
     23 C46         -2.7500    -1.2390    -0.6420 cc         1 N2A      -0.205400
     24 C47         -3.1600    -2.0790     0.3770 cd         1 N2A       0.090600
     25 N48         -2.3170    -3.1160     0.7890 nd         1 N2A      -0.634300
     26 C49         -1.1440    -3.2300     0.1600 cc         1 N2A       0.504800
     27 O56         -1.0950    -0.6240    -2.2320 o          1 N2A      -0.536000
     28 O58          7.6590    -1.5200     2.9700 o          1 N2A      -0.558000
     29 C60         -3.7100    -0.1870    -0.9830 ca         1 N2A      -0.028800
     30 C62         -3.3220     1.1650    -0.9450 ca         1 N2A      -0.063000
     31 C63         -4.2440     2.1750    -1.2670 ca         1 N2A      -0.109000
     32 C64         -5.5590     1.8440    -1.6320 ca         1 N2A       0.136000
     33 C65         -5.9610     0.4910    -1.6800 ca         1 N2A      -0.111300
     34 C66         -5.0300    -0.5160    -1.3510 ca         1 N2A      -0.090000
     35 Cl73        -6.6820     3.1480    -2.0170 cl         1 N2A      -0.186000
     36 C75         -7.3790     0.0970    -2.0720 c3         1 N2A       0.150300
     37 N77         -8.2930     0.2130    -0.9380 ns         1 N2A      -0.502900
     38 C79         -9.6470    -0.0190    -1.0060 c          1 N2A       0.622700
     39 O81        -10.1740    -0.3610    -2.0560 o          1 N2A      -0.595100
     40 C83        -10.4380     0.1690     0.2720 ca         1 N2A      -0.168600
     41 C85        -11.8340    -0.0640     0.2610 ca         1 N2A      -0.046000
     42 C86        -12.5990     0.1020     1.4290 ca         1 N2A      -0.163500
     43 C87        -11.9800     0.5020     2.6190 ca         1 N2A       0.192000
     44 C88        -10.5990     0.7380     2.6510 ca         1 N2A      -0.163500
     45 C89         -9.8280     0.5740     1.4860 ca         1 N2A      -0.046000
     46 F96        -12.7160     0.6610     3.7410 f          1 N2A      -0.175000
     47 H2           8.3830     1.6440    -1.1510 ha         1 N2A       0.137000
     48 H5          11.9390     1.3910     2.3670 ha         1 N2A       0.128000
     49 H6          12.1730     2.9870     0.4440 ha         1 N2A       0.133000
     50 H20          7.0650    -0.1390    -0.8040 h1         1 N2A       0.051700
     51 H22         10.3110    -0.1610     4.5950 h1         1 N2A       0.052367
     52 H22A        10.1200    -1.8330     3.9900 h1         1 N2A       0.052367
     53 H22B        11.5000    -0.8420     3.4460 h1         1 N2A       0.052367
     54 H26          7.7430    -2.4860    -0.5450 hc         1 N2A       0.067450
     55 H26A         6.6750    -2.6790     0.8460 hc         1 N2A       0.067450
     56 H27          5.8170    -1.9890    -2.0170 h1         1 N2A       0.033950
     57 H27A         5.5590    -3.5200    -1.1690 h1         1 N2A       0.033950
     58 H29          4.5390     0.0930    -1.2060 h1         1 N2A       0.033950
     59 H29A         3.4720    -0.0610     0.1970 h1         1 N2A       0.033950
     60 H30          5.3570    -0.4520     1.7040 hc         1 N2A       0.067450
     61 H30A         5.6190     1.0390     0.8010 hc         1 N2A       0.067450
     62 H37          3.2210    -1.8410    -2.2860 h1         1 N2A       0.031700
     63 H37A         3.2470    -3.4120    -1.4810 h1         1 N2A       0.031700
     64 H39          1.7920    -2.4510     0.3560 hc         1 N2A       0.063200
     65 H39A         1.6300    -0.9740    -0.5990 hc         1 N2A       0.063200
     66 H41          0.6680    -2.3060    -2.5000 h1         1 N2A       0.066200
     67 H41A         0.7960    -3.7680    -1.5250 h1         1 N2A       0.066200
     68 H47         -4.1160    -1.9710     0.8900 h4         1 N2A       0.214000
     69 H49         -0.4580    -4.0180     0.4460 h5         1 N2A       0.051800
     70 H62         -2.3080     1.4340    -0.6610 ha         1 N2A       0.131000
     71 H63         -3.9390     3.2180    -1.2310 ha         1 N2A       0.133000
     72 H66         -5.3320    -1.5600    -1.3890 ha         1 N2A       0.115000
     73 H75         -7.7360     0.7330    -2.8930 h1         1 N2A       0.069200
     74 H75A        -7.3920    -0.9410    -2.4310 h1         1 N2A       0.069200
     75 HN77        -7.9140     0.4950    -0.0440 hn         1 N2A       0.315500
     76 H85        -12.3330    -0.3760    -0.6560 ha         1 N2A       0.129000
     77 H86        -13.6700    -0.0800     1.4110 ha         1 N2A       0.136000
     78 H88        -10.1270     1.0490     3.5790 ha         1 N2A       0.136000
     79 H89         -8.7600     0.7670     1.5480 ha         1 N2A       0.129000
@<TRIPOS>BOND
     1     1     2 ar  
     2     1     6 ar  
     3     1    12 1   
     4     2     3 ar  
     5     2    47 1   
     6     3     4 ar  
     7     3     9 1   
     8     4     5 ar  
     9     4     7 1   
    10     5     6 ar  
    11     5    48 1   
    12     6    49 1   
    13     7     8 1   
    14     7    11 1   
    15     8     9 1   
    16     8    28 2   
    17     9    10 1   
    18    10    13 1   
    19    10    17 1   
    20    10    50 1   
    21    11    51 1   
    22    11    52 1   
    23    11    53 1   
    24    13    14 1   
    25    13    54 1   
    26    13    55 1   
    27    14    15 1   
    28    14    56 1   
    29    14    57 1   
    30    15    16 1   
    31    15    18 1   
    32    16    17 1   
    33    16    58 1   
    34    16    59 1   
    35    17    60 1   
    36    17    61 1   
    37    18    19 1   
    38    18    62 1   
    39    18    63 1   
    40    19    20 1   
    41    19    64 1   
    42    19    65 1   
    43    20    21 1   
    44    20    66 1   
    45    20    67 1   
    46    21    22 1   
    47    21    26 1   
    48    22    23 1   
    49    22    27 2   
    50    23    24 2   
    51    23    29 1   
    52    24    25 1   
    53    24    68 1   
    54    25    26 2   
    55    26    69 1   
    56    29    30 ar  
    57    29    34 ar  
    58    30    31 ar  
    59    30    70 1   
    60    31    32 ar  
    61    31    71 1   
    62    32    33 ar  
    63    32    35 1   
    64    33    34 ar  
    65    33    36 1   
    66    34    72 1   
    67    36    37 1   
    68    36    73 1   
    69    36    74 1   
    70    37    38 1   
    71    37    75 1   
    72    38    39 2   
    73    38    40 1   
    74    40    41 ar  
    75    40    45 ar  
    76    41    42 ar  
    77    41    76 1   
    78    42    43 ar  
    79    42    77 1   
    80    43    44 ar  
    81    43    46 1   
    82    44    45 ar  
    83    44    78 1   
    84    45    79 1   
@<TRIPOS>SUBSTRUCTURE
     1 N2A         1 TEMP              0 ****  ****    0 ROOT
