@<TRIPOS>MOLECULE
N2B
   18    18     1     0     0
SMALL
No Charge or Current Charge


@<TRIPOS>ATOM
      1 C1          -0.4740     0.0130    -0.3200 ca         1 N2B      -0.077300
      2 C2           0.2300    -1.2020    -0.2020 ca         1 N2B      -0.108500
      3 C3           1.6140    -1.1990     0.0450 ca         1 N2B      -0.109000
      4 C4           2.3020     0.0190     0.1770 ca         1 N2B      -0.113000
      5 C5           1.6050     1.2340     0.0610 ca         1 N2B      -0.109000
      6 C6           0.2210     1.2300    -0.1860 ca         1 N2B      -0.108500
      7 C7          -1.9740     0.0090    -0.5840 c3         1 N2B      -0.032100
      8 C8          -2.7930    -0.0040     0.7200 c3         1 N2B      -0.086100
      9 H2          -0.2960    -2.1490    -0.3000 ha         1 N2B       0.109500
     10 H3           2.1520    -2.1400     0.1360 ha         1 N2B       0.110500
     11 H4           3.3730     0.0220     0.3680 ha         1 N2B       0.111000
     12 H5           2.1360     2.1780     0.1640 ha         1 N2B       0.110500
     13 H6          -0.3120     2.1750    -0.2720 ha         1 N2B       0.109500
     14 H1'1        -2.2580     0.8890    -1.1740 hc         1 N2B       0.044700
     15 H1'2        -2.2510    -0.8650    -1.1870 hc         1 N2B       0.044700
     16 H2'1        -2.5690     0.8820     1.3260 hc         1 N2B       0.034367
     17 H2'2        -3.8670    -0.0060     0.4980 hc         1 N2B       0.034367
     18 H2'3        -2.5620    -0.8970     1.3130 hc         1 N2B       0.034367
@<TRIPOS>BOND
     1     1     2 ar  
     2     1     6 ar  
     3     1     7 1   
     4     2     3 ar  
     5     2     9 1   
     6     3     4 ar  
     7     3    10 1   
     8     4     5 ar  
     9     4    11 1   
    10     5     6 ar  
    11     5    12 1   
    12     6    13 1   
    13     7     8 1   
    14     7    14 1   
    15     7    15 1   
    16     8    16 1   
    17     8    17 1   
    18     8    18 1   
@<TRIPOS>SUBSTRUCTURE
     1 N2B         1 TEMP              0 ****  ****    0 ROOT
