@<TRIPOS>MOLECULE
N2B
   18    18     1     0     0
SMALL
bcc


@<TRIPOS>ATOM
      1 C1          -0.4790     0.0580    -0.3380 ca         1 N2B      -0.077300
      2 C2           0.1940    -1.1480    -0.1450 ca         1 N2B      -0.126500
      3 C3           1.5570    -1.1720     0.1160 ca         1 N2B      -0.127000
      4 C4           2.2740     0.0160     0.1890 ca         1 N2B      -0.131000
      5 C5           1.6160     1.2240    -0.0010 ca         1 N2B      -0.127000
      6 C6           0.2510     1.2420    -0.2620 ca         1 N2B      -0.126500
      7 C7          -1.9640     0.0740    -0.5780 c3         1 N2B      -0.032100
      8 C8          -2.7580    -0.1020     0.7140 c3         1 N2B      -0.086100
      9 H2          -0.3570    -2.0810    -0.2050 ha         1 N2B       0.127500
     10 H3           2.0610    -2.1190     0.2600 ha         1 N2B       0.128500
     11 H4           3.3380    -0.0000     0.3880 ha         1 N2B       0.129000
     12 H5           2.1670     2.1550     0.0520 ha         1 N2B       0.128500
     13 H6          -0.2530     2.1890    -0.4140 ha         1 N2B       0.127500
     14 H1'1        -2.2490     1.0160    -1.0520 hc         1 N2B       0.044700
     15 H1'2        -2.2320    -0.7200    -1.2790 hc         1 N2B       0.044700
     16 H2'1        -2.5450     0.7020     1.4200 hc         1 N2B       0.034367
     17 H2'2        -3.8310    -0.0970     0.5160 hc         1 N2B       0.034367
     18 H2'3        -2.5140    -1.0470     1.2010 hc         1 N2B       0.034367
@<TRIPOS>BOND
     1     1     2 ar  
     2     1     6 ar  
     3     1     7 1   
     4     2     3 ar  
     5     2     9 1   
     6     3     4 ar  
     7     3    10 1   
     8     4     5 ar  
     9     4    11 1   
    10     5     6 ar  
    11     5    12 1   
    12     6    13 1   
    13     7     8 1   
    14     7    14 1   
    15     7    15 1   
    16     8    16 1   
    17     8    17 1   
    18     8    18 1   
@<TRIPOS>SUBSTRUCTURE
     1 N2B         1 TEMP              0 ****  ****    0 ROOT
