@<TRIPOS>MOLECULE
N2D
   79    84     1     0     0
SMALL
No Charge or Current Charge


@<TRIPOS>ATOM
      1 C1          11.7870   -21.1790   -41.0030 ca         1 N2D       0.119000
      2 C2          11.2240   -19.9490   -41.3980 ca         1 N2D      -0.102000
      3 Cl2         12.8910   -22.0160   -42.0860 cl         1 N2D      -0.214000
      4 C3          10.3800   -19.2810   -40.4950 ca         1 N2D       0.020600
      5 Cl3         17.1270    -6.8950   -42.9260 cl         1 N2D      -0.209000
      6 C4          10.0170   -19.8810   -39.2920 ca         1 N2D       0.003600
      7 C5          10.4870   -21.1510   -38.9290 ca         1 N2D      -0.104000
      8 C6          11.4250   -21.7780   -39.7760 ca         1 N2D      -0.103000
      9 N13          8.8920   -19.1750   -38.7900 n          1 N2D      -0.295000
     10 C14          8.5650   -18.1150   -39.6420 c          1 N2D       0.593000
     11 N15          9.4680   -18.1970   -40.7140 n          1 N2D      -0.295000
     12 C22          8.3510   -19.3280   -37.4280 c3         1 N2D       0.106300
     13 O24          7.7010   -17.2660   -39.4660 o          1 N2D      -0.565000
     14 C26          9.6270   -17.1320   -41.7350 c6         1 N2D       0.129700
     15 C28         11.0510   -16.5270   -41.7670 c6         1 N2D      -0.089400
     16 C29         11.1460   -15.4140   -42.8350 c6         1 N2D       0.171800
     17 N30         10.7440   -15.9130   -44.1840 n3         1 N2D      -0.737600
     18 C31          9.3550   -16.4550   -44.1670 c6         1 N2D       0.171800
     19 C32          9.2010   -17.6010   -43.1440 c6         1 N2D      -0.089400
     20 C39         10.9240   -14.9150   -45.2670 c3         1 N2D       0.179800
     21 C41         12.3880   -14.4970   -45.5210 c3         1 N2D      -0.100400
     22 C43         12.5400   -13.6070   -46.7720 c3         1 N2D       0.108000
     23 N45         13.9390   -13.1900   -47.0190 n          1 N2D      -0.124800
     24 N47         14.3540   -12.0920   -46.2760 nc         1 N2D      -0.421300
     25 C48         15.5990   -11.6280   -46.4170 cd         1 N2D       0.391200
     26 C49         16.5130   -12.2480   -47.3540 cd         1 N2D      -0.218600
     27 C50         16.0820   -13.3420   -48.0910 cc         1 N2D      -0.264200
     28 C51         14.7270   -13.8970   -47.9610 c          1 N2D       0.528200
     29 C58         15.9880   -10.4560   -45.5990 ca         1 N2D      -0.110900
     30 C60         15.0230    -9.5120   -45.1810 ca         1 N2D      -0.065000
     31 C61         15.3900    -8.4250   -44.3720 ca         1 N2D      -0.110000
     32 C62         16.7200    -8.2700   -43.9540 ca         1 N2D       0.138000
     33 C63         17.6960    -9.2130   -44.3400 ca         1 N2D      -0.111300
     34 C64         17.3200   -10.3030   -45.1510 ca         1 N2D      -0.075000
     35 O71         14.3340   -14.8640   -48.6010 o          1 N2D      -0.543000
     36 C75         19.1450    -9.0870   -43.8840 c3         1 N2D       0.146300
     37 N77         19.3260    -9.6410   -42.5440 ns         1 N2D      -0.501900
     38 C79         20.5180    -9.6360   -41.8570 c          1 N2D       0.611700
     39 C81         20.5080   -10.2420   -40.4670 ca         1 N2D      -0.152600
     40 C83         21.7050   -10.2710   -39.7140 ca         1 N2D      -0.073000
     41 C84         21.7290   -10.8250   -38.4220 ca         1 N2D      -0.117000
     42 C85         20.5600   -11.3610   -37.8620 ca         1 N2D      -0.087000
     43 C86         19.3640   -11.3400   -38.5960 ca         1 N2D      -0.117000
     44 C87         19.3330   -10.7870   -39.8890 ca         1 N2D      -0.073000
     45 O94         21.5290    -9.1610   -42.3570 o          1 N2D      -0.609100
     46 H2          11.4450   -19.5440   -42.3790 ha         1 N2D       0.146000
     47 H5          10.1340   -21.6460   -38.0280 ha         1 N2D       0.128000
     48 H6          11.8310   -22.7500   -39.5100 ha         1 N2D       0.132000
     49 H22          7.4080   -18.7760   -37.3280 h1         1 N2D       0.053367
     50 H22A         8.1640   -20.3880   -37.2210 h1         1 N2D       0.053367
     51 H22B         9.0750   -18.9400   -36.7000 h1         1 N2D       0.053367
     52 H26          8.9480   -16.3100   -41.4610 h1         1 N2D       0.083700
     53 H28         11.3050   -16.1160   -40.7820 hc         1 N2D       0.058450
     54 H28A        11.8000   -17.2960   -41.9900 hc         1 N2D       0.058450
     55 H29         10.5080   -14.5700   -42.5350 h1         1 N2D       0.036950
     56 H29A        12.1830   -15.0490   -42.8440 h1         1 N2D       0.036950
     57 H31          8.6390   -15.6550   -43.9230 h1         1 N2D       0.036950
     58 H31A         9.0830   -16.8380   -45.1620 h1         1 N2D       0.036950
     59 H32          9.8010   -18.4590   -43.4690 hc         1 N2D       0.058450
     60 H32A         8.1560   -17.9400   -43.1250 hc         1 N2D       0.058450
     61 H39         10.5370   -15.3350   -46.2060 h1         1 N2D       0.034200
     62 H39A        10.3320   -14.0150   -45.0520 h1         1 N2D       0.034200
     63 H41         12.7770   -13.9510   -44.6540 hc         1 N2D       0.061200
     64 H41A        13.0030   -15.3960   -45.6440 hc         1 N2D       0.061200
     65 H43         12.1510   -14.1390   -47.6490 h1         1 N2D       0.072200
     66 H43A        11.9250   -12.7060   -46.6470 h1         1 N2D       0.072200
     67 H49         17.5150   -11.8540   -47.4860 ha         1 N2D       0.204000
     68 H50         16.7220   -13.8460   -48.8080 ha         1 N2D       0.218000
     69 H60         13.9840    -9.6100   -45.4910 ha         1 N2D       0.132000
     70 H61         14.6400    -7.7020   -44.0640 ha         1 N2D       0.134000
     71 H64         18.0720   -11.0420   -45.4190 ha         1 N2D       0.133000
     72 H75         19.8030    -9.6230   -44.5810 h1         1 N2D       0.077700
     73 H75A        19.4560    -8.0330   -43.8870 h1         1 N2D       0.077700
     74 HN77        18.5250   -10.0440   -42.0790 hn         1 N2D       0.318500
     75 H83         22.6240    -9.8610   -40.1280 ha         1 N2D       0.122000
     76 H84         22.6580   -10.8400   -37.8560 ha         1 N2D       0.119500
     77 H85         20.5800   -11.7900   -36.8630 ha         1 N2D       0.117000
     78 H86         18.4560   -11.7550   -38.1630 ha         1 N2D       0.119500
     79 H87         18.3870   -10.7900   -40.4240 ha         1 N2D       0.122000
@<TRIPOS>BOND
     1     1     2 ar  
     2     1     3 1   
     3     1     8 ar  
     4     2     4 ar  
     5     2    46 1   
     6     4     6 ar  
     7     4    11 1   
     8     5    32 1   
     9     6     7 ar  
    10     6     9 1   
    11     7     8 ar  
    12     7    47 1   
    13     8    48 1   
    14     9    10 1   
    15     9    12 1   
    16    10    11 1   
    17    10    13 2   
    18    11    14 1   
    19    12    49 1   
    20    12    50 1   
    21    12    51 1   
    22    14    15 1   
    23    14    19 1   
    24    14    52 1   
    25    15    16 1   
    26    15    53 1   
    27    15    54 1   
    28    16    17 1   
    29    16    55 1   
    30    16    56 1   
    31    17    18 1   
    32    17    20 1   
    33    18    19 1   
    34    18    57 1   
    35    18    58 1   
    36    19    59 1   
    37    19    60 1   
    38    20    21 1   
    39    20    61 1   
    40    20    62 1   
    41    21    22 1   
    42    21    63 1   
    43    21    64 1   
    44    22    23 1   
    45    22    65 1   
    46    22    66 1   
    47    23    24 1   
    48    23    28 1   
    49    24    25 2   
    50    25    26 1   
    51    25    29 1   
    52    26    27 2   
    53    26    67 1   
    54    27    28 1   
    55    27    68 1   
    56    28    35 2   
    57    29    30 ar  
    58    29    34 ar  
    59    30    31 ar  
    60    30    69 1   
    61    31    32 ar  
    62    31    70 1   
    63    32    33 ar  
    64    33    34 ar  
    65    33    36 1   
    66    34    71 1   
    67    36    37 1   
    68    36    72 1   
    69    36    73 1   
    70    37    38 1   
    71    37    74 1   
    72    38    39 1   
    73    38    45 2   
    74    39    40 ar  
    75    39    44 ar  
    76    40    41 ar  
    77    40    75 1   
    78    41    42 ar  
    79    41    76 1   
    80    42    43 ar  
    81    42    77 1   
    82    43    44 ar  
    83    43    78 1   
    84    44    79 1   
@<TRIPOS>SUBSTRUCTURE
     1 N2D         1 TEMP              0 ****  ****    0 ROOT
