@<TRIPOS>MOLECULE
N2D
   79    84     1     0     0
SMALL
abcg2


@<TRIPOS>ATOM
      1 C1          13.8410   -17.8960   -39.2990 ca         1 N2D       0.119000
      2 C2          12.9090   -17.5120   -40.2610 ca         1 N2D      -0.102000
      3 CL2         15.5450   -17.7100   -39.6790 cl         1 N2D      -0.214000
      4 C3          11.5710   -17.6540   -39.9290 ca         1 N2D       0.020600
      5 CL3         16.0390    -7.2750   -41.8580 cl         1 N2D      -0.209000
      6 C4          11.1930   -18.1730   -38.6750 ca         1 N2D       0.003600
      7 C5          12.1310   -18.5550   -37.7340 ca         1 N2D      -0.104000
      8 C6          13.4820   -18.4090   -38.0590 ca         1 N2D      -0.103000
      9 N13          9.8110   -18.1900   -38.6390 n          1 N2D      -0.295000
     10 C14          9.3030   -17.6990   -39.8280 c          1 N2D       0.593000
     11 N15         10.3990   -17.3710   -40.6180 n          1 N2D      -0.295000
     12 C22          8.9990   -18.6610   -37.5370 c3         1 N2D       0.106300
     13 O24          8.1200   -17.5750   -40.1260 o          1 N2D      -0.565000
     14 C26         10.2540   -16.7950   -41.9530 c6         1 N2D       0.129700
     15 C28         10.8880   -15.4080   -42.0500 c6         1 N2D      -0.089400
     16 C29         10.7750   -14.8730   -43.4710 c6         1 N2D       0.171800
     17 N30         11.3700   -15.8010   -44.4310 n3         1 N2D      -0.737600
     18 C31         10.6610   -17.0760   -44.4130 c6         1 N2D       0.171800
     19 C32         10.7810   -17.7320   -43.0410 c6         1 N2D      -0.089400
     20 C39         11.4810   -15.2100   -45.7630 c3         1 N2D       0.179800
     21 C41         12.7530   -14.3760   -45.8820 c3         1 N2D      -0.100400
     22 C43         12.7790   -13.5000   -47.1290 c3         1 N2D       0.108000
     23 N45         14.0800   -12.8340   -47.2520 n          1 N2D      -0.124800
     24 N47         14.2740   -11.8480   -46.3730 nc         1 N2D      -0.421300
     25 C48         15.4430   -11.2680   -46.3040 cd         1 N2D       0.391200
     26 C49         16.5090   -11.6570   -47.1700 cd         1 N2D      -0.218600
     27 C50         16.3070   -12.6530   -48.0600 cc         1 N2D      -0.264200
     28 C51         15.0430   -13.3460   -48.1180 c          1 N2D       0.528200
     29 C58         15.6110   -10.2340   -45.2630 ca         1 N2D      -0.110900
     30 C60         14.5550    -9.3920   -44.9020 ca         1 N2D      -0.065000
     31 C61         14.7090    -8.4790   -43.8740 ca         1 N2D      -0.110000
     32 C62         15.9180    -8.4130   -43.1860 ca         1 N2D       0.138000
     33 C63         16.9940    -9.2310   -43.5220 ca         1 N2D      -0.111300
     34 C64         16.8190   -10.1260   -44.5770 ca         1 N2D      -0.075000
     35 O71         14.8010   -14.3100   -48.8520 o          1 N2D      -0.543000
     36 C75         18.2910    -9.2680   -42.7480 c3         1 N2D       0.146300
     37 N77         18.3110   -10.4090   -41.8400 ns         1 N2D      -0.501900
     38 C79         19.0120   -11.5380   -42.0830 c          1 N2D       0.611700
     39 C81         18.7140   -12.7020   -41.1890 ca         1 N2D      -0.152600
     40 C83         19.7440   -13.5960   -40.8940 ca         1 N2D      -0.073000
     41 C84         19.5000   -14.7100   -40.1020 ca         1 N2D      -0.117000
     42 C85         18.2170   -14.9540   -39.6180 ca         1 N2D      -0.087000
     43 C86         17.1820   -14.0760   -39.9230 ca         1 N2D      -0.117000
     44 C87         17.4300   -12.9490   -40.6990 ca         1 N2D      -0.073000
     45 O94         19.8540   -11.6230   -42.9800 o          1 N2D      -0.609100
     46 H2          13.2350   -17.1220   -41.2120 ha         1 N2D       0.146000
     47 H5          11.8360   -18.9530   -36.7730 ha         1 N2D       0.128000
     48 H6          14.2450   -18.6930   -37.3490 ha         1 N2D       0.132000
     49 H22          7.9550   -18.5560   -37.8170 h1         1 N2D       0.053367
     50 H22A         9.2150   -19.7100   -37.3280 h1         1 N2D       0.053367
     51 H22B         9.1950   -18.0700   -36.6410 h1         1 N2D       0.053367
     52 H26          9.1770   -16.6880   -42.0890 h1         1 N2D       0.083700
     53 H28         10.3910   -14.7280   -41.3540 hc         1 N2D       0.058450
     54 H28A        11.9420   -15.4500   -41.7730 hc         1 N2D       0.058450
     55 H29          9.7130   -14.6950   -43.7190 h1         1 N2D       0.036950
     56 H29A        11.2850   -13.9120   -43.5380 h1         1 N2D       0.036950
     57 H31          9.5930   -16.9460   -44.6680 h1         1 N2D       0.036950
     58 H31A        11.0980   -17.7280   -45.1710 h1         1 N2D       0.036950
     59 H32         11.8290   -17.9740   -42.8570 hc         1 N2D       0.058450
     60 H32A        10.2170   -18.6670   -43.0220 hc         1 N2D       0.058450
     61 H39         11.5110   -16.0150   -46.4990 h1         1 N2D       0.034200
     62 H39A        10.5960   -14.5960   -46.0000 h1         1 N2D       0.034200
     63 H41         12.8590   -13.7320   -45.0070 hc         1 N2D       0.061200
     64 H41A        13.6160   -15.0470   -45.8930 hc         1 N2D       0.061200
     65 H43         12.6320   -14.0850   -48.0330 h1         1 N2D       0.072200
     66 H43A        12.0170   -12.7230   -47.0790 h1         1 N2D       0.072200
     67 H49         17.4600   -11.1430   -47.1150 ha         1 N2D       0.204000
     68 H50         17.0790   -12.9820   -48.7420 ha         1 N2D       0.218000
     69 H60         13.6140    -9.4530   -45.4310 ha         1 N2D       0.132000
     70 H61         13.8960    -7.8230   -43.5950 ha         1 N2D       0.134000
     71 H64         17.6420   -10.7820   -44.8280 ha         1 N2D       0.133000
     72 H75         19.1300    -9.3850   -43.4300 h1         1 N2D       0.077700
     73 H75A        18.4350    -8.3540   -42.1780 h1         1 N2D       0.077700
     74 HN77        17.6460   -10.4050   -41.0820 hn         1 N2D       0.318500
     75 H83         20.7350   -13.4080   -41.2860 ha         1 N2D       0.122000
     76 H84         20.3070   -15.3920   -39.8670 ha         1 N2D       0.119500
     77 H85         18.0230   -15.8290   -39.0110 ha         1 N2D       0.117000
     78 H86         16.1800   -14.2730   -39.5650 ha         1 N2D       0.119500
     79 H87         16.6120   -12.2850   -40.9460 ha         1 N2D       0.122000
@<TRIPOS>BOND
     1     1     2 ar  
     2     1     3 1   
     3     1     8 ar  
     4     2     4 ar  
     5     2    46 1   
     6     4     6 ar  
     7     4    11 1   
     8     5    32 1   
     9     6     7 ar  
    10     6     9 1   
    11     7     8 ar  
    12     7    47 1   
    13     8    48 1   
    14     9    10 1   
    15     9    12 1   
    16    10    11 1   
    17    10    13 2   
    18    11    14 1   
    19    12    49 1   
    20    12    50 1   
    21    12    51 1   
    22    14    15 1   
    23    14    19 1   
    24    14    52 1   
    25    15    16 1   
    26    15    53 1   
    27    15    54 1   
    28    16    17 1   
    29    16    55 1   
    30    16    56 1   
    31    17    18 1   
    32    17    20 1   
    33    18    19 1   
    34    18    57 1   
    35    18    58 1   
    36    19    59 1   
    37    19    60 1   
    38    20    21 1   
    39    20    61 1   
    40    20    62 1   
    41    21    22 1   
    42    21    63 1   
    43    21    64 1   
    44    22    23 1   
    45    22    65 1   
    46    22    66 1   
    47    23    24 1   
    48    23    28 1   
    49    24    25 2   
    50    25    26 1   
    51    25    29 1   
    52    26    27 2   
    53    26    67 1   
    54    27    28 1   
    55    27    68 1   
    56    28    35 2   
    57    29    30 ar  
    58    29    34 ar  
    59    30    31 ar  
    60    30    69 1   
    61    31    32 ar  
    62    31    70 1   
    63    32    33 ar  
    64    33    34 ar  
    65    33    36 1   
    66    34    71 1   
    67    36    37 1   
    68    36    72 1   
    69    36    73 1   
    70    37    38 1   
    71    37    74 1   
    72    38    39 1   
    73    38    45 2   
    74    39    40 ar  
    75    39    44 ar  
    76    40    41 ar  
    77    40    75 1   
    78    41    42 ar  
    79    41    76 1   
    80    42    43 ar  
    81    42    77 1   
    82    43    44 ar  
    83    43    78 1   
    84    44    79 1   
@<TRIPOS>SUBSTRUCTURE
     1 N2D         1 TEMP              0 ****  ****    0 ROOT
