@<TRIPOS>MOLECULE
N2E
   51    55     1     0     0
SMALL
abcg2


@<TRIPOS>ATOM
      1 C1         108.9860   133.4450   106.5910 cc         1 N2E      -0.247500
      2 C2         109.7280   134.5860   106.7540 cd         1 N2E      -0.014000
      3 C11        112.8770   137.0080   102.4450 ca         1 N2E      -0.071000
      4 C12        113.7190   137.9380   101.8420 ca         1 N2E      -0.043000
      5 C13        114.3680   138.8910   102.6360 ca         1 N2E      -0.122000
      6 C14        114.1760   138.9050   104.0060 ca         1 N2E      -0.135000
      7 C15        113.3340   137.9730   104.5860 ca         1 N2E       0.176000
      8 C18        113.5350   137.1250    99.4910 c          1 N2E       0.551600
      9 C19        113.9670   137.4800    98.1370 cc         1 N2E       0.015500
     10 C21        113.7780   136.9120    96.9130 cd         1 N2E       0.350300
     11 C23        114.9730   138.6760    96.6220 cc         1 N2E       0.484300
     12 C25        115.7840   139.8010    96.1110 c3         1 N2E      -0.125400
     13 C26        113.0350   135.6880    96.5220 c3         1 N2E      -0.130400
     14 C27        108.0920   132.9070   107.6440 ca         1 N2E       0.403500
     15 C29        106.0190   131.9870   108.0520 ca         1 N2E       0.339900
     16 C30        106.2810   131.8750   109.4110 ca         1 N2E      -0.152000
     17 C10        112.6660   137.0120   103.8290 ca         1 N2E      -0.116900
     18 C31        107.5200   132.2860   109.8730 ca         1 N2E      -0.076000
     19 C32        108.4670   132.8140   108.9960 ca         1 N2E      -0.107300
     20 C33        109.8170   133.2190   109.5200 c3         1 N2E      -0.049800
     21 C5         111.7560   136.0150   104.3980 cc         1 N2E       0.596900
     22 C7         110.5100   134.3090   104.5030 cd         1 N2E       0.410500
     23 C9         109.0590   132.7880   105.3310 cc         1 N2E       0.417900
     24 N17        113.9540   137.9890   100.4590 ns         1 N2E      -0.138000
     25 N22        114.4300   137.6950    95.9670 nd         1 N2E      -0.696000
     26 N28        106.9010   132.4870   107.1900 nb         1 N2E      -0.667000
     27 N3         110.4780   134.9940   105.7090 na         1 N2E       0.079900
     28 N4         111.2720   136.0850   105.6440 nd         1 N2E      -0.571100
     29 N6         111.3190   134.9510   103.6710 nc         1 N2E      -0.365300
     30 N8         109.7950   133.1920   104.3160 nd         1 N2E      -0.627000
     31 O20        112.8530   136.1230    99.6980 o          1 N2E      -0.563100
     32 O24        114.7360   138.6170    97.9520 os         1 N2E      -0.290000
     33 H1         109.7510   135.2030   107.6380 h4         1 N2E       0.167000
     34 H2         112.3690   136.2740   101.8460 ha         1 N2E       0.178000
     35 H3         115.0240   139.6200   102.1780 ha         1 N2E       0.117000
     36 H4         114.6760   139.6310   104.6330 ha         1 N2E       0.135000
     37 H5         115.8800   139.7170    95.0310 hc         1 N2E       0.070367
     38 H6         115.3120   140.7540    96.3590 hc         1 N2E       0.070367
     39 H7         116.7770   139.7910    96.5640 hc         1 N2E       0.070367
     40 H8         113.7030   134.9940    96.0080 hc         1 N2E       0.066033
     41 H9         112.6080   135.1990    97.3920 hc         1 N2E       0.066033
     42 H10        112.2340   135.9450    95.8250 hc         1 N2E       0.066033
     43 H11        105.0700   131.6620   107.6400 h4         1 N2E       0.026100
     44 H12        105.5390   131.4640   110.0820 ha         1 N2E       0.129000
     45 H13        107.7700   132.1890   110.9230 ha         1 N2E       0.122000
     46 H14        109.8540   134.2880   109.7470 hc         1 N2E       0.049700
     47 H15        110.0330   132.6840   110.4450 hc         1 N2E       0.049700
     48 H16        110.6130   133.0070   108.8050 hc         1 N2E       0.049700
     49 H17        108.4740   131.8880   105.1850 h4         1 N2E       0.051100
     50 H18        114.5300   138.7590   100.1480 hn         1 N2E       0.165000
     51 F16        113.1870   138.0130   105.9290 f          1 N2E      -0.165000
@<TRIPOS>BOND
     1     1     2 2   
     2     1    14 1   
     3     1    23 1   
     4     2    27 1   
     5     2    33 1   
     6     3     4 ar  
     7     3    17 ar  
     8     3    34 1   
     9     4     5 ar  
    10     4    24 1   
    11     5     6 ar  
    12     5    35 1   
    13     6     7 ar  
    14     6    36 1   
    15     7    17 ar  
    16     7    51 1   
    17     8     9 1   
    18     8    24 1   
    19     8    31 2   
    20     9    10 2   
    21     9    32 1   
    22    10    13 1   
    23    10    25 1   
    24    11    12 1   
    25    11    25 2   
    26    11    32 1   
    27    12    37 1   
    28    12    38 1   
    29    12    39 1   
    30    13    40 1   
    31    13    41 1   
    32    13    42 1   
    33    14    19 ar  
    34    14    26 ar  
    35    15    16 ar  
    36    15    26 ar  
    37    15    43 1   
    38    16    18 ar  
    39    16    44 1   
    40    17    21 1   
    41    18    19 ar  
    42    18    45 1   
    43    19    20 1   
    44    20    46 1   
    45    20    47 1   
    46    20    48 1   
    47    21    28 2   
    48    21    29 1   
    49    22    27 1   
    50    22    29 2   
    51    22    30 1   
    52    23    30 2   
    53    23    49 1   
    54    24    50 1   
    55    27    28 1   
@<TRIPOS>SUBSTRUCTURE
     1 N2E         1 TEMP              0 ****  ****    0 ROOT
