@<TRIPOS>MOLECULE
N2E
   51    55     1     0     0
SMALL
No Charge or Current Charge


@<TRIPOS>ATOM
      1 C1         109.1140   133.2830   106.5980 cc         1 N2E      -0.247500
      2 C2         109.6590   134.5520   106.7980 cd         1 N2E      -0.014000
      3 C11        112.8260   136.9390   102.4740 ca         1 N2E      -0.071000
      4 C12        113.6670   137.8860   101.8450 ca         1 N2E      -0.043000
      5 C13        114.3100   138.8550   102.6320 ca         1 N2E      -0.122000
      6 C14        114.1230   138.8790   104.0210 ca         1 N2E      -0.135000
      7 C15        113.2880   137.9390   104.6420 ca         1 N2E       0.176000
      8 C18        113.4600   137.1350    99.3880 c          1 N2E       0.551600
      9 C19        114.0000   137.5910    98.0860 cc         1 N2E       0.015500
     10 C21        113.7590   137.0350    96.8550 cd         1 N2E       0.350300
     11 C23        115.0650   138.6980    96.5990 cc         1 N2E       0.484300
     12 C25        115.9590   139.7650    96.0530 c3         1 N2E      -0.125400
     13 C26        112.9130   135.8500    96.4780 c3         1 N2E      -0.130400
     14 C27        108.1760   132.8030   107.6110 ca         1 N2E       0.403500
     15 C29        106.0370   131.9610   107.9750 ca         1 N2E       0.339900
     16 C30        106.1950   132.0110   109.3660 ca         1 N2E      -0.152000
     17 C10        112.6190   136.9500   103.8790 ca         1 N2E      -0.116900
     18 C31        107.4060   132.4780   109.8970 ca         1 N2E      -0.076000
     19 C32        108.4220   132.8870   109.0130 ca         1 N2E      -0.107300
     20 C33        109.7620   133.3250   109.6050 c3         1 N2E      -0.049800
     21 C5         111.7290   135.9490   104.5010 cc         1 N2E       0.596900
     22 C7         110.6560   134.1550   104.6390 cd         1 N2E       0.410500
     23 C9         109.3350   132.5510   105.3680 cc         1 N2E       0.417900
     24 N17        113.9060   137.9240   100.4420 ns         1 N2E      -0.138000
     25 N22        114.4500   137.7560    95.9020 nd         1 N2E      -0.696000
     26 N28        107.0010   132.3530   107.1130 nb         1 N2E      -0.667000
     27 N3         110.4850   134.9360   105.7500 na         1 N2E       0.079900
     28 N4         111.1520   136.1120   105.6950 nd         1 N2E      -0.571100
     29 N6         111.4570   134.7800   103.8190 nc         1 N2E      -0.365300
     30 N8         110.1110   132.9240   104.3460 nd         1 N2E      -0.627000
     31 O20        112.7090   136.1740    99.5180 o          1 N2E      -0.563100
     32 O24        114.8370   138.6600    97.9410 os         1 N2E      -0.290000
     33 H1         109.5070   135.2310   107.6280 h4         1 N2E       0.167000
     34 H2         112.3140   136.1910   101.8750 ha         1 N2E       0.178000
     35 H3         114.9620   139.5930   102.1670 ha         1 N2E       0.117000
     36 H4         114.6310   139.6280   104.6240 ha         1 N2E       0.135000
     37 H5         116.0570   139.6770    94.9650 hc         1 N2E       0.070367
     38 H6         115.5560   140.7580    96.2810 hc         1 N2E       0.070367
     39 H7         116.9590   139.6910    96.4940 hc         1 N2E       0.070367
     40 H8         112.9360   135.6710    95.3970 hc         1 N2E       0.066033
     41 H9         113.2690   134.9410    96.9750 hc         1 N2E       0.066033
     42 H10        111.8680   136.0090    96.7680 hc         1 N2E       0.066033
     43 H11        105.1070   131.6010   107.5340 h4         1 N2E       0.026100
     44 H12        105.3890   131.6860   110.0180 ha         1 N2E       0.129000
     45 H13        107.5530   132.5140   110.9750 ha         1 N2E       0.122000
     46 H14        109.7800   134.4040   109.7940 hc         1 N2E       0.049700
     47 H15        109.9540   132.8240   110.5610 hc         1 N2E       0.049700
     48 H16        110.6020   133.0760   108.9450 hc         1 N2E       0.049700
     49 H17        108.8620   131.5920   105.2040 h4         1 N2E       0.051100
     50 H18        114.5220   138.6740   100.1530 hn         1 N2E       0.165000
     51 F16        113.1730   137.9970   105.9890 f          1 N2E      -0.165000
@<TRIPOS>BOND
     1     1     2 2   
     2     1    14 1   
     3     1    23 1   
     4     2    27 1   
     5     2    33 1   
     6     3     4 ar  
     7     3    17 ar  
     8     3    34 1   
     9     4     5 ar  
    10     4    24 1   
    11     5     6 ar  
    12     5    35 1   
    13     6     7 ar  
    14     6    36 1   
    15     7    17 ar  
    16     7    51 1   
    17     8     9 1   
    18     8    24 1   
    19     8    31 2   
    20     9    10 2   
    21     9    32 1   
    22    10    13 1   
    23    10    25 1   
    24    11    12 1   
    25    11    25 2   
    26    11    32 1   
    27    12    37 1   
    28    12    38 1   
    29    12    39 1   
    30    13    40 1   
    31    13    41 1   
    32    13    42 1   
    33    14    19 ar  
    34    14    26 ar  
    35    15    16 ar  
    36    15    26 ar  
    37    15    43 1   
    38    16    18 ar  
    39    16    44 1   
    40    17    21 1   
    41    18    19 ar  
    42    18    45 1   
    43    19    20 1   
    44    20    46 1   
    45    20    47 1   
    46    20    48 1   
    47    21    28 2   
    48    21    29 1   
    49    22    27 1   
    50    22    29 2   
    51    22    30 1   
    52    23    30 2   
    53    23    49 1   
    54    24    50 1   
    55    27    28 1   
@<TRIPOS>SUBSTRUCTURE
     1 N2E         1 TEMP              0 ****  ****    0 ROOT
