@<TRIPOS>MOLECULE
N2F
   27    28     1     0     0
SMALL
No Charge or Current Charge


@<TRIPOS>ATOM
      1 O1           1.7290    -0.0660    -0.4780 os         1 N2F      -0.137000
      2 C2           2.7590     0.3970     0.3230 cc         1 N2F       0.052500
      3 C3           2.6360    -0.1620     1.5720 cd         1 N2F      -0.093000
      4 C4           1.5000    -0.9970     1.5540 cd         1 N2F      -0.075000
      5 C5           0.9690    -0.9220     0.2940 cc         1 N2F      -0.024100
      6 O3           3.6200     1.6840    -1.3910 o          1 N2F      -0.366500
      7 O2           4.6370     1.7090     0.5470 o          1 N2F      -0.366500
      8 N            3.7360     1.3240    -0.2100 no         1 N2F       0.619500
      9 H3           3.2960     0.0130     2.4170 ha         1 N2F       0.176000
     10 H4           1.1140    -1.5870     2.3810 ha         1 N2F       0.175000
     11 S1          -0.5030    -1.7390    -0.3570 sy         1 N2F       0.997600
     12 O4          -0.2990    -1.9300    -1.8010 o          1 N2F      -0.504500
     13 O5          -0.8060    -2.8740     0.5290 o          1 N2F      -0.504500
     14 C1          -1.8060    -0.5040    -0.1460 ca         1 N2F      -0.293500
     15 C6          -2.0140     0.4770    -1.1380 ca         1 N2F      -0.003000
     16 C7          -3.0180     1.4460    -0.9680 ca         1 N2F      -0.132500
     17 C8          -3.8170     1.4500     0.1900 ca         1 N2F      -0.007300
     18 C9          -3.6050     0.4720     1.1790 ca         1 N2F      -0.132500
     19 C10         -2.6030    -0.5010     1.0170 ca         1 N2F      -0.003000
     20 C11         -4.9040     2.4980     0.3690 c3         1 N2F      -0.061800
     21 H5          -1.4030     0.4950    -2.0400 ha         1 N2F       0.140000
     22 H6          -3.1740     2.1960    -1.7400 ha         1 N2F       0.122500
     23 H7          -4.2170     0.4640     2.0780 ha         1 N2F       0.122500
     24 H8          -2.4530    -1.2460     1.7970 ha         1 N2F       0.140000
     25 H9          -5.8550     2.1490    -0.0500 hc         1 N2F       0.052700
     26 H10         -5.0680     2.7280     1.4280 hc         1 N2F       0.052700
     27 H11         -4.6410     3.4370    -0.1340 hc         1 N2F       0.052700
@<TRIPOS>BOND
     1     1     2 1   
     2     1     5 1   
     3     2     3 2   
     4     2     8 1   
     5     3     4 1   
     6     3     9 1   
     7     4     5 2   
     8     4    10 1   
     9     5    11 1   
    10     6     8 1   
    11     7     8 1   
    12    11    12 2   
    13    11    13 2   
    14    11    14 1   
    15    14    15 ar  
    16    14    19 ar  
    17    15    16 ar  
    18    15    21 1   
    19    16    17 ar  
    20    16    22 1   
    21    17    18 ar  
    22    17    20 1   
    23    18    19 ar  
    24    18    23 1   
    25    19    24 1   
    26    20    25 1   
    27    20    26 1   
    28    20    27 1   
@<TRIPOS>SUBSTRUCTURE
     1 N2F         1 TEMP              0 ****  ****    0 ROOT
