@<TRIPOS>MOLECULE
N2F
   27    28     1     0     0
SMALL
abcg2


@<TRIPOS>ATOM
      1 O1           1.4870     0.0300    -0.3310 os         1 N2F      -0.137000
      2 C2           2.5300     0.4200     0.4030 cc         1 N2F       0.052500
      3 C3           2.6520    -0.2950     1.5490 cd         1 N2F      -0.093000
      4 C4           1.5740    -1.2150     1.5210 cd         1 N2F      -0.075000
      5 C5           0.9150    -0.9650     0.3610 cc         1 N2F      -0.024100
      6 O3           3.0100     1.9500    -1.1800 o          1 N2F      -0.366500
      7 O2           4.2650     1.8190     0.5610 o          1 N2F      -0.366500
      8 N            3.3250     1.4770    -0.1160 no         1 N2F       0.619500
      9 H3           3.4000    -0.1850     2.3170 ha         1 N2F       0.176000
     10 H4           1.3290    -1.9540     2.2650 ha         1 N2F       0.175000
     11 S1          -0.5210    -1.7190    -0.3300 sy         1 N2F       0.997600
     12 O4          -0.2620    -1.9240    -1.7450 o          1 N2F      -0.504500
     13 O5          -0.8110    -2.8390     0.5490 o          1 N2F      -0.504500
     14 C1          -1.7610    -0.4860    -0.1460 ca         1 N2F      -0.293500
     15 C6          -1.9910     0.4080    -1.1840 ca         1 N2F      -0.003000
     16 C7          -2.9570     1.3860    -1.0200 ca         1 N2F      -0.132500
     17 C8          -3.6950     1.4820     0.1590 ca         1 N2F      -0.007300
     18 C9          -3.4420     0.5690     1.1830 ca         1 N2F      -0.132500
     19 C10         -2.4800    -0.4160     1.0410 ca         1 N2F      -0.003000
     20 C11         -4.7560     2.5280     0.3100 c3         1 N2F      -0.061800
     21 H5          -1.4320     0.3520    -2.1080 ha         1 N2F       0.140000
     22 H6          -3.1390     2.0860    -1.8260 ha         1 N2F       0.122500
     23 H7          -4.0050     0.6260     2.1060 ha         1 N2F       0.122500
     24 H8          -2.3000    -1.1140     1.8480 ha         1 N2F       0.140000
     25 H9          -5.7180     2.1480    -0.0420 hc         1 N2F       0.052700
     26 H10         -4.8840     2.8220     1.3510 hc         1 N2F       0.052700
     27 H11         -4.5240     3.4180    -0.2730 hc         1 N2F       0.052700
@<TRIPOS>BOND
     1     1     2 1   
     2     1     5 1   
     3     2     3 2   
     4     2     8 1   
     5     3     4 1   
     6     3     9 1   
     7     4     5 2   
     8     4    10 1   
     9     5    11 1   
    10     6     8 1   
    11     7     8 1   
    12    11    12 2   
    13    11    13 2   
    14    11    14 1   
    15    14    15 ar  
    16    14    19 ar  
    17    15    16 ar  
    18    15    21 1   
    19    16    17 ar  
    20    16    22 1   
    21    17    18 ar  
    22    17    20 1   
    23    18    19 ar  
    24    18    23 1   
    25    19    24 1   
    26    20    25 1   
    27    20    26 1   
    28    20    27 1   
@<TRIPOS>SUBSTRUCTURE
     1 N2F         1 TEMP              0 ****  ****    0 ROOT
