@<TRIPOS>MOLECULE
N2H
   23    22     1     0     0
SMALL
abcg2


@<TRIPOS>ATOM
      1 C4          -1.0120     0.4590    -0.2200 c3         1 N2H      -0.081400
      2 C5          -2.2750    -0.2770     0.2080 c3         1 N2H      -0.078400
      3 C6          -3.5440     0.4060    -0.2790 c3         1 N2H       0.150800
      4 O8           2.9980    -1.3200    -0.0380 oh         1 N2H      -0.696500
      5 C1           2.6690    -0.0050     0.3340 c3         1 N2H       0.612500
      6 O9           3.6470     0.8970    -0.0810 oh         1 N2H      -0.696500
      7 N2           1.4350     0.4920    -0.1750 n7         1 N2H      -0.905400
      8 C3           0.2550    -0.2470     0.2370 c3         1 N2H       0.180800
      9 N7          -4.7280    -0.3310     0.1410 n8         1 N2H      -0.996200
     10 H1          -1.0000     0.5510    -1.3110 hc         1 N2H       0.046200
     11 H2          -1.0190     1.4780     0.1770 hc         1 N2H       0.046200
     12 H3          -2.2560    -1.3040    -0.1700 hc         1 N2H       0.046700
     13 H4          -2.3010    -0.3500     1.3010 hc         1 N2H       0.046700
     14 H5          -3.5370     1.4530     0.0580 h1         1 N2H       0.026700
     15 H6          -3.5340     0.4380    -1.3720 h1         1 N2H       0.026700
     16 H7           3.0120    -1.3800    -1.0020 ho         1 N2H       0.455000
     17 H8           4.5000     0.5980     0.2530 ho         1 N2H       0.455000
     18 H9           1.4680     0.5720    -1.1870 hn         1 N2H       0.427000
     19 H11          0.2590    -0.3110     1.3300 h1         1 N2H       0.036200
     20 H12          0.2440    -1.2820    -0.1310 h1         1 N2H       0.036200
     21 H13         -4.8250    -0.2600     1.1460 hn         1 N2H       0.391500
     22 H14         -5.5540     0.1120    -0.2420 hn         1 N2H       0.391500
     23 H16          2.5940    -0.0550     1.4270 h3         1 N2H       0.078700
@<TRIPOS>BOND
     1     1     2 1   
     2     1     8 1   
     3     1    10 1   
     4     1    11 1   
     5     2     3 1   
     6     2    12 1   
     7     2    13 1   
     8     3     9 1   
     9     3    14 1   
    10     3    15 1   
    11     4     5 1   
    12     4    16 1   
    13     5     6 1   
    14     5     7 1   
    15     5    23 1   
    16     6    17 1   
    17     7     8 1   
    18     7    18 1   
    19     8    19 1   
    20     8    20 1   
    21     9    21 1   
    22     9    22 1   
@<TRIPOS>SUBSTRUCTURE
     1 N2H         1 TEMP              0 ****  ****    0 ROOT
