@<TRIPOS>MOLECULE
N2H
   23    22     1     0     0
SMALL
No Charge or Current Charge


@<TRIPOS>ATOM
      1 C4          -0.9830     0.4250    -0.2140 c3         1 N2H      -0.081400
      2 C5          -2.2830    -0.3060     0.1910 c3         1 N2H      -0.078400
      3 C6          -3.5530     0.4040    -0.3210 c3         1 N2H       0.150800
      4 O8           2.9710    -1.2590    -0.0960 oh         1 N2H      -0.696500
      5 C1           2.7450     0.0240     0.3680 c3         1 N2H       0.612500
      6 O9           3.6980     0.8310    -0.2270 oh         1 N2H      -0.696500
      7 N2           1.4880     0.4770    -0.1140 n7         1 N2H      -0.905400
      8 C3           0.2890    -0.2820     0.2970 c3         1 N2H       0.180800
      9 N7          -4.7750    -0.3190     0.0780 n8         1 N2H      -0.996200
     10 H1          -0.9400     0.5030    -1.3070 hc         1 N2H       0.046200
     11 H2          -1.0090     1.4490     0.1810 hc         1 N2H       0.046200
     12 H3          -2.2570    -1.3290    -0.2050 hc         1 N2H       0.046700
     13 H4          -2.3260    -0.3830     1.2840 hc         1 N2H       0.046700
     14 H5          -3.5980     1.4240     0.0870 h1         1 N2H       0.026700
     15 H6          -3.5250     0.4680    -1.4170 h1         1 N2H       0.026700
     16 H7           2.5110    -1.2750    -0.9540 ho         1 N2H       0.455000
     17 H8           4.5130     0.6500     0.2820 ho         1 N2H       0.455000
     18 H9           1.5500     0.5350    -1.1310 hn         1 N2H       0.427000
     19 H11          0.2400    -0.3540     1.3920 h1         1 N2H       0.036200
     20 H12          0.3120    -1.3050    -0.1050 h1         1 N2H       0.036200
     21 H13         -4.8500    -0.3070     1.1020 hn         1 N2H       0.391500
     22 H14         -5.5960     0.2180    -0.2290 hn         1 N2H       0.391500
     23 H16          2.8760     0.0450     1.4620 h3         1 N2H       0.078700
@<TRIPOS>BOND
     1     1     2 1   
     2     1     8 1   
     3     1    10 1   
     4     1    11 1   
     5     2     3 1   
     6     2    12 1   
     7     2    13 1   
     8     3     9 1   
     9     3    14 1   
    10     3    15 1   
    11     4     5 1   
    12     4    16 1   
    13     5     6 1   
    14     5     7 1   
    15     5    23 1   
    16     6    17 1   
    17     7     8 1   
    18     7    18 1   
    19     8    19 1   
    20     8    20 1   
    21     9    21 1   
    22     9    22 1   
@<TRIPOS>SUBSTRUCTURE
     1 N2H         1 TEMP              0 ****  ****    0 ROOT
