@<TRIPOS>MOLECULE
N2I
   21    22     1     0     0
SMALL
abcg2


@<TRIPOS>ATOM
      1 C1B          3.9710     0.1760     0.4010 c2         1 N2I       0.442100
      2 N1B          3.0110     0.7670    -0.1720 ne         1 N2I      -0.564100
      3 C2           1.7210     0.2190    -0.1290 ca         1 N2I       0.109400
      4 C3           1.4770    -1.1780    -0.1350 ca         1 N2I      -0.127000
      5 C4           0.1990    -1.6590    -0.0970 ca         1 N2I      -0.091000
      6 C4A         -0.9100    -0.7820    -0.0420 ca         1 N2I      -0.038000
      7 C8A         -0.6710     0.6170    -0.0470 ca         1 N2I      -0.035000
      8 C1           0.6580     1.0890    -0.1060 ca         1 N2I      -0.070000
      9 C5          -2.2420    -1.2550     0.0060 ca         1 N2I      -0.098000
     10 C6          -3.2910    -0.3780     0.0520 ca         1 N2I      -0.105000
     11 C7          -3.0540     1.0140     0.0480 ca         1 N2I      -0.107000
     12 C8          -1.7760     1.4990    -0.0010 ca         1 N2I      -0.095000
     13 H1           3.8760    -0.7450     0.9780 h4         1 N2I      -0.015700
     14 H2           4.9650     0.6080     0.3330 h4         1 N2I      -0.015700
     15 H3           2.3070    -1.8710    -0.1990 ha         1 N2I       0.113000
     16 H4           0.0250    -2.7280    -0.1160 ha         1 N2I       0.114000
     17 H5           0.8420     2.1570    -0.1260 ha         1 N2I       0.128000
     18 H6          -2.4180    -2.3240     0.0080 ha         1 N2I       0.113000
     19 H7          -4.3080    -0.7470     0.0910 ha         1 N2I       0.113000
     20 H8          -3.8920     1.6980     0.0830 ha         1 N2I       0.113000
     21 H9          -1.5970     2.5680    -0.0050 ha         1 N2I       0.115000
@<TRIPOS>BOND
     1     1     2 2   
     2     1    13 1   
     3     1    14 1   
     4     2     3 1   
     5     3     4 ar  
     6     3     8 ar  
     7     4     5 ar  
     8     4    15 1   
     9     5     6 ar  
    10     5    16 1   
    11     6     7 ar  
    12     6     9 ar  
    13     7     8 ar  
    14     7    12 ar  
    15     8    17 1   
    16     9    10 ar  
    17     9    18 1   
    18    10    11 ar  
    19    10    19 1   
    20    11    12 ar  
    21    11    20 1   
    22    12    21 1   
@<TRIPOS>SUBSTRUCTURE
     1 N2I         1 TEMP              0 ****  ****    0 ROOT
