@<TRIPOS>MOLECULE
N2I
   21    22     1     0     0
SMALL
No Charge or Current Charge


@<TRIPOS>ATOM
      1 C1B          4.0690     0.1660     0.3750 c2         1 N2I       0.442100
      2 N1B          3.0300     0.7530    -0.1510 ne         1 N2I      -0.564100
      3 C2           1.7240     0.2200    -0.1060 ca         1 N2I       0.109400
      4 C3           1.4830    -1.1710    -0.1160 ca         1 N2I      -0.127000
      5 C4           0.1680    -1.6660    -0.0800 ca         1 N2I      -0.091000
      6 C4A         -0.9210    -0.7760    -0.0400 ca         1 N2I      -0.038000
      7 C8A         -0.6890     0.6160    -0.0410 ca         1 N2I      -0.035000
      8 C1           0.6310     1.1050    -0.0770 ca         1 N2I      -0.070000
      9 C5          -2.2400    -1.2670    -0.0040 ca         1 N2I      -0.098000
     10 C6          -3.3240    -0.3730     0.0330 ca         1 N2I      -0.105000
     11 C7          -3.0930     1.0140     0.0320 ca         1 N2I      -0.107000
     12 C8          -1.7780     1.5080    -0.0050 ca         1 N2I      -0.095000
     13 H1           3.9760    -0.7680     0.9240 h4         1 N2I      -0.015700
     14 H2           5.0500     0.6280     0.2980 h4         1 N2I      -0.015700
     15 H3           2.3080    -1.8770    -0.1630 ha         1 N2I       0.113000
     16 H4          -0.0030    -2.7400    -0.0870 ha         1 N2I       0.114000
     17 H5           0.8120     2.1770    -0.0800 ha         1 N2I       0.128000
     18 H6          -2.4270    -2.3390    -0.0040 ha         1 N2I       0.113000
     19 H7          -4.3430    -0.7540     0.0610 ha         1 N2I       0.113000
     20 H8          -3.9330     1.7050     0.0600 ha         1 N2I       0.113000
     21 H9          -1.6070     2.5830    -0.0050 ha         1 N2I       0.115000
@<TRIPOS>BOND
     1     1     2 2   
     2     1    13 1   
     3     1    14 1   
     4     2     3 1   
     5     3     4 ar  
     6     3     8 ar  
     7     4     5 ar  
     8     4    15 1   
     9     5     6 ar  
    10     5    16 1   
    11     6     7 ar  
    12     6     9 ar  
    13     7     8 ar  
    14     7    12 ar  
    15     8    17 1   
    16     9    10 ar  
    17     9    18 1   
    18    10    11 ar  
    19    10    19 1   
    20    11    12 ar  
    21    11    20 1   
    22    12    21 1   
@<TRIPOS>SUBSTRUCTURE
     1 N2I         1 TEMP              0 ****  ****    0 ROOT
