@<TRIPOS>MOLECULE
N2J
   69    72     1     0     0
SMALL
abcg2


@<TRIPOS>ATOM
      1 C11         13.5010    25.6710    14.0790 c5         1 N2J      -0.043200
      2 C12         13.8150    25.3920    12.6350 c2         1 N2J      -0.106400
      3 C13         14.7950    24.3180    12.2710 c3         1 N2J      -0.030200
      4 C10         12.5680    26.8970    14.0690 c5         1 N2J      -0.095700
      5 C02         10.7240    26.9890    12.2390 ce         1 N2J      -0.050400
      6 C03          9.9630    25.8980    12.9070 ca         1 N2J      -0.057800
      7 C04          8.7160    26.1720    13.4830 ca         1 N2J      -0.105000
      8 C05          7.9710    25.1690    14.0910 ca         1 N2J      -0.114000
      9 C06          8.4550    23.8650    14.1380 ca         1 N2J      -0.109000
     10 C07          9.6950    23.5790    13.5750 ca         1 N2J      -0.114000
     11 C08         10.4410    24.5850    12.9730 ca         1 N2J      -0.105000
     12 C09         12.2040    27.1640    12.5580 c5         1 N2J       0.039400
     13 C14         14.2170    22.9000    12.4480 c3         1 N2J      -0.068400
     14 C15         13.2230    22.5250    11.3520 c3         1 N2J      -0.082400
     15 C16         12.4380    21.2510    11.6450 c3         1 N2J      -0.075400
     16 C17         11.3720    20.9500    10.5930 c3         1 N2J      -0.077400
     17 C18         10.5580    19.6970    10.9070 c3         1 N2J      -0.088100
     18 C19         13.0960    26.1600    11.8110 ce         1 N2J      -0.064400
     19 C20         13.1760    26.1610    10.3360 ca         1 N2J      -0.042800
     20 C21         14.3220    26.6440     9.6950 ca         1 N2J      -0.099500
     21 C22         14.4180    26.6490     8.3080 ca         1 N2J      -0.112500
     22 C23         13.3640    26.1750     7.5340 ca         1 N2J      -0.108000
     23 C24         12.2160    25.6950     8.1580 ca         1 N2J      -0.112500
     24 C25         12.1220    25.6910     9.5450 ca         1 N2J      -0.099500
     25 C26         13.2120    28.2260    14.5410 c5         1 N2J       0.221500
     26 C32         13.8300    28.8280    13.2840 c5         1 N2J      -0.075400
     27 C33         12.7180    28.6040    12.2670 c5         1 N2J      -0.073400
     28 N27         14.1710    28.1680    15.6450 n7         1 N2J      -0.899300
     29 N30         13.4030    26.4210    17.4400 n8         1 N2J      -1.039100
     30 O29         14.8470    28.3250    18.0240 o          1 N2J      -0.563500
     31 O31         12.5070    28.8180    17.3370 o          1 N2J      -0.563500
     32 S28         13.7070    28.0300    17.1930 s6         1 N2J       1.286200
     33 H112        13.0150    24.8100    14.5460 hc         1 N2J       0.054200
     34 H111        14.4170    25.8350    14.6520 hc         1 N2J       0.054200
     35 H132        15.6770    24.4250    12.9100 hc         1 N2J       0.051700
     36 H131        15.1290    24.4410    11.2390 hc         1 N2J       0.051700
     37 H101        11.6780    26.7000    14.6610 hc         1 N2J       0.067700
     38 H011         9.0510    27.6190    11.1190 ha         1 N2J       0.170500
     39 H012        10.5920    28.5940    10.8610 ha         1 N2J       0.170500
     40 H041         8.3390    27.1870    13.4660 ha         1 N2J       0.120000
     41 H051         7.0120    25.4090    14.5360 ha         1 N2J       0.114000
     42 H061         7.8750    23.0830    14.6110 ha         1 N2J       0.113000
     43 H071        10.0850    22.5690    13.5980 ha         1 N2J       0.114000
     44 H081        11.3960    24.3450    12.5370 ha         1 N2J       0.120000
     45 H141        13.7280    22.8280    13.4240 hc         1 N2J       0.039700
     46 H142        15.0390    22.1780    12.4600 hc         1 N2J       0.039700
     47 H152        13.7580    22.4200    10.4010 hc         1 N2J       0.043200
     48 H151        12.5190    23.3460    11.2050 hc         1 N2J       0.043200
     49 H161        13.1240    20.4000    11.7240 hc         1 N2J       0.035200
     50 H162        11.9540    21.3480    12.6230 hc         1 N2J       0.035200
     51 H172        10.7010    21.8120    10.5140 hc         1 N2J       0.038200
     52 H171        11.8500    20.8430     9.6140 hc         1 N2J       0.038200
     53 H181         9.8050    19.5050    10.1390 hc         1 N2J       0.031367
     54 H183        11.2030    18.8170    10.9710 hc         1 N2J       0.031367
     55 H182        10.0410    19.7990    11.8650 hc         1 N2J       0.031367
     56 H211        15.1420    27.0170    10.2960 ha         1 N2J       0.116500
     57 H221        15.3160    27.0260     7.8330 ha         1 N2J       0.113500
     58 H231        13.4370    26.1780     6.4540 ha         1 N2J       0.113000
     59 H241        11.3930    25.3190     7.5640 ha         1 N2J       0.113500
     60 H251        11.2300    25.3090    10.0200 ha         1 N2J       0.116500
     61 H261        12.4120    28.8860    14.8750 h1         1 N2J       0.087700
     62 H321        14.7350    28.2790    13.0100 hc         1 N2J       0.057200
     63 H322        14.0920    29.8780    13.4130 hc         1 N2J       0.057200
     64 H331        13.0440    28.7230    11.2350 hc         1 N2J       0.057200
     65 H332        11.9210    29.3250    12.4500 hc         1 N2J       0.057200
     66 H271        15.0450    27.6910    15.4570 hn         1 N2J       0.491000
     67 H302        13.4360    26.2050    18.4330 hn         1 N2J       0.471000
     68 H301        12.5100    26.1380    17.0480 hn         1 N2J       0.471000
     69 C01         10.0920    27.7810    11.3690 c2         1 N2J      -0.299000
@<TRIPOS>BOND
     1     1     2 1   
     2     1     4 1   
     3     1    33 1   
     4     1    34 1   
     5     2     3 1   
     6     2    18 2   
     7     3    13 1   
     8     3    35 1   
     9     3    36 1   
    10     4    12 1   
    11     4    25 1   
    12     4    37 1   
    13     5     6 1   
    14     5    12 1   
    15     5    69 2   
    16     6     7 ar  
    17     6    11 ar  
    18     7     8 ar  
    19     7    40 1   
    20     8     9 ar  
    21     8    41 1   
    22     9    10 ar  
    23     9    42 1   
    24    10    11 ar  
    25    10    43 1   
    26    11    44 1   
    27    12    18 1   
    28    12    27 1   
    29    13    14 1   
    30    13    45 1   
    31    13    46 1   
    32    14    15 1   
    33    14    47 1   
    34    14    48 1   
    35    15    16 1   
    36    15    49 1   
    37    15    50 1   
    38    16    17 1   
    39    16    51 1   
    40    16    52 1   
    41    17    53 1   
    42    17    54 1   
    43    17    55 1   
    44    18    19 1   
    45    19    20 ar  
    46    19    24 ar  
    47    20    21 ar  
    48    20    56 1   
    49    21    22 ar  
    50    21    57 1   
    51    22    23 ar  
    52    22    58 1   
    53    23    24 ar  
    54    23    59 1   
    55    24    60 1   
    56    25    26 1   
    57    25    28 1   
    58    25    61 1   
    59    26    27 1   
    60    26    62 1   
    61    26    63 1   
    62    27    64 1   
    63    27    65 1   
    64    28    32 1   
    65    28    66 1   
    66    29    32 1   
    67    29    67 1   
    68    29    68 1   
    69    30    32 2   
    70    31    32 2   
    71    38    69 1   
    72    39    69 1   
@<TRIPOS>SUBSTRUCTURE
     1 N2J         1 TEMP              0 ****  ****    0 ROOT
