@<TRIPOS>MOLECULE
N2J
   69    72     1     0     0
SMALL
No Charge or Current Charge


@<TRIPOS>ATOM
      1 C11         13.7450    25.7170    14.0600 c5         1 N2J      -0.043200
      2 C12         13.9380    25.3460    12.6010 c2         1 N2J      -0.106400
      3 C13         14.9180    24.2730    12.1540 c3         1 N2J      -0.030200
      4 C10         12.5820    26.7990    14.1240 c5         1 N2J      -0.095700
      5 C02         10.7640    27.1100    12.2710 ce         1 N2J      -0.050400
      6 C03          9.8450    26.1950    13.0150 ca         1 N2J      -0.057800
      7 C04          8.6570    26.6950    13.5880 ca         1 N2J      -0.105000
      8 C05          7.7870    25.8390    14.2850 ca         1 N2J      -0.114000
      9 C06          8.0950    24.4740    14.4150 ca         1 N2J      -0.109000
     10 C07          9.2760    23.9670    13.8470 ca         1 N2J      -0.114000
     11 C08         10.1450    24.8240    13.1500 ca         1 N2J      -0.105000
     12 C09         12.2800    27.1360    12.6080 c5         1 N2J       0.039400
     13 C14         14.3480    22.8410    12.2520 c3         1 N2J      -0.068400
     14 C15         13.2400    22.5420    11.2170 c3         1 N2J      -0.082400
     15 C16         12.6660    21.1140    11.3320 c3         1 N2J      -0.075400
     16 C17         11.5380    20.8390    10.3130 c3         1 N2J      -0.077400
     17 C18         10.9560    19.4170    10.4270 c3         1 N2J      -0.088100
     18 C19         13.1280    26.1200    11.8620 ce         1 N2J      -0.064400
     19 C20         13.1040    26.0410    10.3750 ca         1 N2J      -0.042800
     20 C21         14.2070    26.4830     9.5770 ca         1 N2J      -0.099500
     21 C22         14.2060    26.4090     8.1450 ca         1 N2J      -0.112500
     22 C23         13.0770    25.8810     7.4840 ca         1 N2J      -0.108000
     23 C24         11.9620    25.4310     8.2200 ca         1 N2J      -0.112500
     24 C25         11.9870    25.5170     9.6510 ca         1 N2J      -0.099500
     25 C26         13.0790    28.1870    14.6800 c5         1 N2J       0.221500
     26 C32         13.9230    28.7220    13.4950 c5         1 N2J      -0.075400
     27 C33         12.8830    28.5690    12.3530 c5         1 N2J      -0.073400
     28 N27         13.9620    28.0540    15.8650 n7         1 N2J      -0.899300
     29 N30         14.0090    26.6870    17.8540 n8         1 N2J      -1.039100
     30 O29         13.5420    29.0760    18.1360 o          1 N2J      -0.563500
     31 O31         11.8270    27.4690    17.1170 o          1 N2J      -0.563500
     32 S28         13.1920    27.9410    17.2960 s6         1 N2J       1.286200
     33 H112        13.4670    24.8290    14.6390 hc         1 N2J       0.054200
     34 H111        14.7030    26.0520    14.4690 hc         1 N2J       0.054200
     35 H132        15.8210    24.3310    12.7750 hc         1 N2J       0.051700
     36 H131        15.2550    24.4510    11.1270 hc         1 N2J       0.051700
     37 H101        11.7260    26.4240    14.6910 hc         1 N2J       0.067700
     38 H011         9.1500    27.7450    11.0190 ha         1 N2J       0.170500
     39 H012        10.8000    28.4720    10.6150 ha         1 N2J       0.170500
     40 H041         8.4130    27.7510    13.4970 ha         1 N2J       0.120000
     41 H051         6.8740    26.2340    14.7250 ha         1 N2J       0.114000
     42 H061         7.4220    23.8120    14.9540 ha         1 N2J       0.113000
     43 H071         9.5190    22.9120    13.9460 ha         1 N2J       0.114000
     44 H081        11.0560    24.4230    12.7190 ha         1 N2J       0.120000
     45 H141        13.9610    22.6730    13.2640 hc         1 N2J       0.039700
     46 H142        15.1680    22.1270    12.1050 hc         1 N2J       0.039700
     47 H152        13.6400    22.6920    10.2060 hc         1 N2J       0.043200
     48 H151        12.4240    23.2590    11.3430 hc         1 N2J       0.043200
     49 H161        13.4730    20.3870    11.1840 hc         1 N2J       0.035200
     50 H162        12.2780    20.9630    12.3470 hc         1 N2J       0.035200
     51 H172        10.7300    21.5670    10.4600 hc         1 N2J       0.038200
     52 H171        11.9220    20.9870     9.2960 hc         1 N2J       0.038200
     53 H181        10.1610    19.2690     9.6860 hc         1 N2J       0.031367
     54 H183        11.7340    18.6640    10.2510 hc         1 N2J       0.031367
     55 H182        10.5310    19.2500    11.4240 hc         1 N2J       0.031367
     56 H211        15.0810    26.8910    10.0780 ha         1 N2J       0.116500
     57 H221        15.0650    26.7550     7.5760 ha         1 N2J       0.113500
     58 H231        13.0680    25.8200     6.3980 ha         1 N2J       0.113000
     59 H241        11.0920    25.0240     7.7090 ha         1 N2J       0.113500
     60 H251        11.1220    25.1630    10.2070 ha         1 N2J       0.116500
     61 H261        12.2360    28.8710    14.8690 h1         1 N2J       0.087700
     62 H321        14.8330    28.1410    13.3080 hc         1 N2J       0.057200
     63 H322        14.2260    29.7650    13.6400 hc         1 N2J       0.057200
     64 H331        13.3290    28.6840    11.3590 hc         1 N2J       0.057200
     65 H332        12.1200    29.3510    12.4480 hc         1 N2J       0.057200
     66 H271        14.3980    27.1390    15.9040 hn         1 N2J       0.491000
     67 H302        14.4350    27.1140    18.6730 hn         1 N2J       0.471000
     68 H301        13.2490    26.1580    18.2770 hn         1 N2J       0.471000
     69 C01         10.2110    27.8180    11.2570 c2         1 N2J      -0.299000
@<TRIPOS>BOND
     1     1     2 1   
     2     1     4 1   
     3     1    33 1   
     4     1    34 1   
     5     2     3 1   
     6     2    18 2   
     7     3    13 1   
     8     3    35 1   
     9     3    36 1   
    10     4    12 1   
    11     4    25 1   
    12     4    37 1   
    13     5     6 1   
    14     5    12 1   
    15     5    69 2   
    16     6     7 ar  
    17     6    11 ar  
    18     7     8 ar  
    19     7    40 1   
    20     8     9 ar  
    21     8    41 1   
    22     9    10 ar  
    23     9    42 1   
    24    10    11 ar  
    25    10    43 1   
    26    11    44 1   
    27    12    18 1   
    28    12    27 1   
    29    13    14 1   
    30    13    45 1   
    31    13    46 1   
    32    14    15 1   
    33    14    47 1   
    34    14    48 1   
    35    15    16 1   
    36    15    49 1   
    37    15    50 1   
    38    16    17 1   
    39    16    51 1   
    40    16    52 1   
    41    17    53 1   
    42    17    54 1   
    43    17    55 1   
    44    18    19 1   
    45    19    20 ar  
    46    19    24 ar  
    47    20    21 ar  
    48    20    56 1   
    49    21    22 ar  
    50    21    57 1   
    51    22    23 ar  
    52    22    58 1   
    53    23    24 ar  
    54    23    59 1   
    55    24    60 1   
    56    25    26 1   
    57    25    28 1   
    58    25    61 1   
    59    26    27 1   
    60    26    62 1   
    61    26    63 1   
    62    27    64 1   
    63    27    65 1   
    64    28    32 1   
    65    28    66 1   
    66    29    32 1   
    67    29    67 1   
    68    29    68 1   
    69    30    32 2   
    70    31    32 2   
    71    38    69 1   
    72    39    69 1   
@<TRIPOS>SUBSTRUCTURE
     1 N2J         1 TEMP              0 ****  ****    0 ROOT
