@<TRIPOS>MOLECULE
N2K
   43    43     1     0     0
SMALL
No Charge or Current Charge


@<TRIPOS>ATOM
      1 N12         28.2410    22.0820    12.2710 n7         1 N2K      -0.900300
      2 C13         27.3830    21.9540    13.4780 c3         1 N2K       0.217800
      3 C14         27.7430    20.7640    14.4290 c3         1 N2K       0.143800
      4 C17         24.6660    20.1460    14.1550 c3         1 N2K      -0.115100
      5 C18         28.0590    18.2970    14.4380 c3         1 N2K       0.179800
      6 C19         28.3900    18.1070    15.9360 c3         1 N2K      -0.115100
      7 O20         26.7880    20.8100    10.6530 o          1 N2K      -0.536500
      8 C05         33.1980    22.8310    10.7730 ca         1 N2K      -0.195300
      9 C06         32.8900    21.5280    10.3270 ca         1 N2K      -0.060000
     10 C07         31.5690    21.1810     9.9950 ca         1 N2K      -0.104500
     11 C08         30.5340    22.1260    10.1100 ca         1 N2K      -0.044300
     12 C09         29.1020    21.7480     9.7500 c3         1 N2K      -0.265100
     13 C16         25.7660    19.2000    14.6670 c3         1 N2K       0.179800
     14 C21         30.8350    23.4250    10.5570 ca         1 N2K      -0.104500
     15 C22         32.1550    23.7750    10.8900 ca         1 N2K      -0.060000
     16 F01         34.8980    24.5190    10.9330 f          1 N2K      -0.113333
     17 F03         34.8840    22.9640    12.4530 f          1 N2K      -0.113333
     18 F04         35.5530    22.5130    10.4340 f          1 N2K      -0.113333
     19 N15         27.1390    19.4250    14.1270 n3         1 N2K      -0.760600
     20 O11         28.9490    19.7740    11.5420 o          1 N2K      -0.536500
     21 S10         28.1890    20.9310    11.0670 s6         1 N2K       1.205100
     22 H1          29.2180    22.0120    12.5460 hn         1 N2K       0.481000
     23 H2          27.4930    22.8700    14.0740 h1         1 N2K       0.067700
     24 H3          26.3280    21.9100    13.1880 h1         1 N2K       0.067700
     25 H4          28.8390    20.6900    14.4440 h1         1 N2K       0.041700
     26 H5          27.4540    21.0560    15.4480 h1         1 N2K       0.041700
     27 H6          23.6820    19.7770    14.4670 hc         1 N2K       0.039033
     28 H7          24.7860    21.1530    14.5700 hc         1 N2K       0.039033
     29 H8          24.6760    20.2000    13.0600 hc         1 N2K       0.039033
     30 H9          27.6290    17.3580    14.0620 h1         1 N2K       0.044200
     31 H10         29.0060    18.4360    13.8990 h1         1 N2K       0.044200
     32 H11         29.0970    17.2790    16.0590 hc         1 N2K       0.039033
     33 H12         28.8490    19.0080    16.3580 hc         1 N2K       0.039033
     34 H13         27.4900    17.8680    16.5140 hc         1 N2K       0.039033
     35 H14         33.6710    20.7750    10.2380 ha         1 N2K       0.133000
     36 H15         31.3500    20.1720     9.6520 ha         1 N2K       0.130000
     37 H16         28.5170    22.6370     9.4930 h1         1 N2K       0.109200
     38 H17         29.0840    21.0550     8.9040 h1         1 N2K       0.109200
     39 H18         25.7760    19.2580    15.7640 h1         1 N2K       0.044200
     40 H19         25.4490    18.1790    14.4110 h1         1 N2K       0.044200
     41 H20         30.0440    24.1660    10.6520 ha         1 N2K       0.130000
     42 H21         32.3600    24.7840    11.2430 ha         1 N2K       0.133000
     43 C02         34.6370    23.2080    11.1460 c3         1 N2K       0.357300
@<TRIPOS>BOND
     1     1     2 1   
     2     1    21 1   
     3     1    22 1   
     4     2     3 1   
     5     2    23 1   
     6     2    24 1   
     7     3    19 1   
     8     3    25 1   
     9     3    26 1   
    10     4    13 1   
    11     4    27 1   
    12     4    28 1   
    13     4    29 1   
    14     5     6 1   
    15     5    19 1   
    16     5    30 1   
    17     5    31 1   
    18     6    32 1   
    19     6    33 1   
    20     6    34 1   
    21     7    21 2   
    22     8     9 ar  
    23     8    15 ar  
    24     8    43 1   
    25     9    10 ar  
    26     9    35 1   
    27    10    11 ar  
    28    10    36 1   
    29    11    12 1   
    30    11    14 ar  
    31    12    21 1   
    32    12    37 1   
    33    12    38 1   
    34    13    19 1   
    35    13    39 1   
    36    13    40 1   
    37    14    15 ar  
    38    14    41 1   
    39    15    42 1   
    40    16    43 1   
    41    17    43 1   
    42    18    43 1   
    43    20    21 2   
@<TRIPOS>SUBSTRUCTURE
     1 N2K         1 TEMP              0 ****  ****    0 ROOT
