@<TRIPOS>MOLECULE
N2K
   43    43     1     0     0
SMALL
abcg2


@<TRIPOS>ATOM
      1 N12         28.5410    21.7820    12.5540 n7         1 N2K      -0.900300
      2 C13         27.5250    21.9840    13.5810 c3         1 N2K       0.217800
      3 C14         27.5450    20.9190    14.6680 c3         1 N2K       0.143800
      4 C17         24.7830    20.0490    13.8670 c3         1 N2K      -0.115100
      5 C18         28.2070    18.5830    14.4580 c3         1 N2K       0.179800
      6 C19         28.3890    18.2040    15.9270 c3         1 N2K      -0.115100
      7 O20         26.8680    20.7070    11.0030 o          1 N2K      -0.536500
      8 C05         33.1040    22.7260    10.7070 ca         1 N2K      -0.195300
      9 C06         32.7700    21.5210    10.1040 ca         1 N2K      -0.060000
     10 C07         31.4400    21.2270     9.8430 ca         1 N2K      -0.104500
     11 C08         30.4360    22.1310    10.1730 ca         1 N2K      -0.044300
     12 C09         29.0010    21.8000     9.9190 c3         1 N2K      -0.265100
     13 C16         25.8580    19.1740    14.4900 c3         1 N2K       0.179800
     14 C21         30.7840    23.3390    10.7740 ca         1 N2K      -0.104500
     15 C22         32.1080    23.6380    11.0400 ca         1 N2K      -0.060000
     16 F01         34.8870    24.2290    10.4310 f          1 N2K      -0.113333
     17 F03         34.7150    23.2470    12.3330 f          1 N2K      -0.113333
     18 F04         35.3910    22.1450    10.6130 f          1 N2K      -0.113333
     19 N15         27.2100    19.5990    14.1720 n3         1 N2K      -0.760600
     20 O11         29.1000    19.5910    11.3330 o          1 N2K      -0.536500
     21 S10         28.2990    20.8060    11.2520 s6         1 N2K       1.205100
     22 H1          29.4830    21.6980    12.9190 hn         1 N2K       0.481000
     23 H2          27.7210    22.9620    14.0260 h1         1 N2K       0.067700
     24 H3          26.5530    22.0450    13.0980 h1         1 N2K       0.067700
     25 H4          28.5470    20.9100    15.1080 h1         1 N2K       0.041700
     26 H5          26.8780    21.2390    15.4810 h1         1 N2K       0.041700
     27 H6          23.7980    19.6310    14.0770 hc         1 N2K       0.039033
     28 H7          24.7930    21.0630    14.2700 hc         1 N2K       0.039033
     29 H8          24.9100    20.1120    12.7870 hc         1 N2K       0.039033
     30 H9          27.9410    17.6870    13.8890 h1         1 N2K       0.044200
     31 H10         29.1620    18.9220    14.0510 h1         1 N2K       0.044200
     32 H11         29.1660    17.4450    16.0270 hc         1 N2K       0.039033
     33 H12         28.6940    19.0610    16.5320 hc         1 N2K       0.039033
     34 H13         27.4770    17.7970    16.3650 hc         1 N2K       0.039033
     35 H14         33.5300    20.8010     9.8330 ha         1 N2K       0.133000
     36 H15         31.1870    20.2890     9.3680 ha         1 N2K       0.130000
     37 H16         28.3810    22.6920     9.8440 h1         1 N2K       0.109200
     38 H17         28.8730    21.2020     9.0140 h1         1 N2K       0.109200
     39 H18         25.6850    19.1250    15.5770 h1         1 N2K       0.044200
     40 H19         25.7370    18.1540    14.1170 h1         1 N2K       0.044200
     41 H20         30.0130    24.0530    11.0330 ha         1 N2K       0.130000
     42 H21         32.3520    24.5840    11.5050 ha         1 N2K       0.133000
     43 C02         34.5250    23.0780    11.0160 c3         1 N2K       0.357300
@<TRIPOS>BOND
     1     1     2 1   
     2     1    21 1   
     3     1    22 1   
     4     2     3 1   
     5     2    23 1   
     6     2    24 1   
     7     3    19 1   
     8     3    25 1   
     9     3    26 1   
    10     4    13 1   
    11     4    27 1   
    12     4    28 1   
    13     4    29 1   
    14     5     6 1   
    15     5    19 1   
    16     5    30 1   
    17     5    31 1   
    18     6    32 1   
    19     6    33 1   
    20     6    34 1   
    21     7    21 2   
    22     8     9 ar  
    23     8    15 ar  
    24     8    43 1   
    25     9    10 ar  
    26     9    35 1   
    27    10    11 ar  
    28    10    36 1   
    29    11    12 1   
    30    11    14 ar  
    31    12    21 1   
    32    12    37 1   
    33    12    38 1   
    34    13    19 1   
    35    13    39 1   
    36    13    40 1   
    37    14    15 ar  
    38    14    41 1   
    39    15    42 1   
    40    16    43 1   
    41    17    43 1   
    42    18    43 1   
    43    20    21 2   
@<TRIPOS>SUBSTRUCTURE
     1 N2K         1 TEMP              0 ****  ****    0 ROOT
