@<TRIPOS>MOLECULE
N2L
  115   124     1     0     0
SMALL
abcg2


@<TRIPOS>ATOM
      1 N1          -1.4590     7.4330    12.9030 no         1 N2L       0.715200
      2 N3          -3.7240    11.1330     9.2490 ns         1 N2L      -0.582300
      3 C4          -4.8830     7.9860    10.5170 ca         1 N2L       0.096000
      4 C5          -4.5020     6.7110    10.8210 ca         1 N2L      -0.239000
      5 C6          -3.3620     6.4260    11.6200 ca         1 N2L       0.463000
      6 C7          -3.7090     4.0160    11.2900 c3         1 N2L       0.213800
      7 C8          -3.0450     2.7180    11.7210 c6         1 N2L      -0.076700
      8 C10         -3.0920     0.2220    11.4470 c6         1 N2L       0.155600
      9 C13         -3.8690    10.4990     8.0330 c          1 N2L       0.660700
     10 C15         -2.7130    12.3920     6.8650 ca         1 N2L      -0.021000
     11 C17         -1.3490    12.0730     4.8830 ca         1 N2L       0.367000
     12 C20         -2.1190     8.0890     7.0240 ca         1 N2L       0.060100
     13 C21         -2.6290     6.7840     7.1100 ca         1 N2L       0.355900
     14 C22         -1.2530     6.3010     8.8080 ca         1 N2L       0.332500
     15 C24          0.2990     7.5870     9.8690 cc         1 N2L      -0.242200
     16 C26         -1.1390     8.5190     7.8980 ca         1 N2L      -0.110000
     17 C28          0.7650    12.2220     1.7970 c6         1 N2L      -0.068400
     18 C1          -2.6260     7.5600    12.0800 ca         1 N2L      -0.310200
     19 C11         -2.6420     1.0760    13.5730 c6         1 N2L       0.155600
     20 C12         -3.1770     2.4550    13.2220 c6         1 N2L      -0.113400
     21 C14         -2.9910    11.0280     6.9730 ca         1 N2L      -0.248600
     22 C16         -1.9290    12.9100     5.8600 ca         1 N2L      -0.202000
     23 C18         -1.6080    10.6930     5.0090 ca         1 N2L      -0.217000
     24 C19         -2.4230    10.1970     6.0050 ca         1 N2L       0.202100
     25 C2          -3.0130     8.8540    11.7530 ca         1 N2L       0.109000
     26 C23          0.2940     6.3270    10.4000 cd         1 N2L      -0.150100
     27 C25         -0.6840     7.5930     8.8370 ca         1 N2L      -0.104800
     28 C27          0.1420    11.6040     3.0360 c6         1 N2L       0.209300
     29 C29          1.6000    13.4480     2.1220 cy         1 N2L      -0.074000
     30 C3          -4.1300     9.0710    10.9830 ca         1 N2L      -0.386500
     31 C30          0.6830    14.4350     2.8080 c6         1 N2L      -0.068400
     32 C31          0.1010    13.8510     4.0820 c6         1 N2L       0.209300
     33 C32          2.4420    13.9410     0.9280 cy         1 N2L      -0.078400
     34 C33          3.6210    13.1160     1.4700 cy         1 N2L       0.161500
     35 C34          2.9260    13.1130     2.8410 cy         1 N2L      -0.078400
     36 C35          5.3230    13.9180    -0.0280 c5         1 N2L       0.158800
     37 C36          6.8110    14.2300     0.0660 c5         1 N2L      -0.080400
     38 C37          7.2850    13.3770     1.2560 c5         1 N2L      -0.075400
     39 C38          5.9900    12.8160     1.8820 c5         1 N2L       0.212800
     40 C39          6.0270    12.7780     3.3890 ca         1 N2L      -0.067300
     41 C40          5.9920    13.9810     4.0910 ca         1 N2L      -0.091000
     42 C41          6.0590    14.0110     5.4750 ca         1 N2L      -0.119000
     43 C42          6.1680    12.8200     6.1800 ca         1 N2L      -0.109000
     44 C43          6.2090    11.6180     5.4900 ca         1 N2L      -0.110000
     45 C44          6.1350    11.5750     4.0980 ca         1 N2L      -0.045300
     46 C45          6.1980    10.2680     3.3790 cx         1 N2L      -0.084400
     47 C46          4.9480     9.6360     2.8360 cx         1 N2L      -0.127900
     48 C47          5.6680     9.0070     3.9870 cx         1 N2L      -0.127900
     49 C9          -3.6520     1.5460    10.9520 c6         1 N2L      -0.113400
     50 N4          -2.2020     5.8900     7.9840 nb         1 N2L      -0.666000
     51 N5          -0.6350     5.5540     9.7670 na         1 N2L      -0.330400
     52 N6          -0.5650    12.5670     3.8720 nh         1 N2L      -0.785400
     53 N7           4.9390    13.6810     1.3530 n3         1 N2L      -0.702600
     54 O1          -1.1440     6.3270    13.3060 o          1 N2L      -0.430000
     55 O2          -0.8240     8.4260    13.1750 o          1 N2L      -0.430000
     56 O3          -3.2750     0.0560    12.8350 os         1 N2L      -0.444000
     57 O4          -6.0130    10.7390    10.2830 o          1 N2L      -0.529000
     58 O5          -4.0810    11.6050    11.6380 o          1 N2L      -0.529000
     59 O6          -4.6550     9.5890     7.8840 o          1 N2L      -0.547100
     60 O7          -2.6290     8.8480     6.0090 os         1 N2L      -0.242200
     61 S1          -4.6050    10.7190    10.6170 sy         1 N2L       1.197300
     62 H1          -2.9250    11.7310     9.4240 hn         1 N2L       0.345500
     63 H2          -5.7730     8.1420     9.9250 ha         1 N2L       0.155000
     64 H3          -5.1040     5.8940    10.4530 ha         1 N2L       0.130000
     65 H4          -4.7660     3.9900    11.5760 h1         1 N2L       0.061700
     66 H5          -3.6700     4.1010    10.1980 h1         1 N2L       0.061700
     67 H6          -1.9780     2.7780    11.4660 hc         1 N2L       0.046700
     68 H7          -3.5930    -0.6130    10.9560 h1         1 N2L       0.047700
     69 H8          -2.0230     0.1590    11.1930 h1         1 N2L       0.047700
     70 H9          -3.1480    13.0880     7.5730 ha         1 N2L       0.120000
     71 H10         -3.4070     6.4730     6.4210 h4         1 N2L       0.039100
     72 H11          0.9380     8.4000    10.1730 ha         1 N2L       0.215000
     73 H12         -0.7230     9.5180     7.8520 ha         1 N2L       0.132000
     74 H13         -0.0220    12.5030     1.0900 hc         1 N2L       0.053950
     75 H14          1.3600    11.4440     1.3110 hc         1 N2L       0.053950
     76 H15         -1.5540     1.0530    13.4030 h1         1 N2L       0.047700
     77 H16         -2.8110     0.8580    14.6290 h1         1 N2L       0.047700
     78 H17         -2.6310     3.1970    13.8120 hc         1 N2L       0.056700
     79 H18         -4.2300     2.5290    13.5140 hc         1 N2L       0.056700
     80 H19         -1.7860    13.9790     5.8440 ha         1 N2L       0.122000
     81 H20         -1.1650     9.9710     4.3400 ha         1 N2L       0.134000
     82 H21         -2.4280     9.6860    12.1190 ha         1 N2L       0.162000
     83 H22          0.9030     5.9130    11.1870 h4         1 N2L       0.226000
     84 H23         -0.5630    10.8450     2.6990 h1         1 N2L       0.044200
     85 H24          0.9130    11.0840     3.6220 h1         1 N2L       0.044200
     86 H25          1.2210    15.3480     3.0740 hc         1 N2L       0.053950
     87 H26         -0.1270    14.7250     2.1290 hc         1 N2L       0.053950
     88 H27          0.8940    13.7410     4.8340 h1         1 N2L       0.044200
     89 H28         -0.6130    14.5690     4.4770 h1         1 N2L       0.044200
     90 H29          2.6470    15.0120     1.0080 hc         1 N2L       0.060200
     91 H30          2.0780    13.7230    -0.0780 hc         1 N2L       0.060200
     92 H31          3.5930    12.1020     1.0340 h1         1 N2L       0.026700
     93 H32          2.9770    12.2070     3.4480 hc         1 N2L       0.060200
     94 H33          3.2660    13.9550     3.4470 hc         1 N2L       0.060200
     95 H34          4.7370    14.7280    -0.4670 h1         1 N2L       0.036700
     96 H35          5.1650    13.0210    -0.6520 h1         1 N2L       0.036700
     97 H36          7.3360    13.9990    -0.8600 hc         1 N2L       0.049200
     98 H37          6.9600    15.2900     0.2730 hc         1 N2L       0.049200
     99 H38          7.9380    12.5600     0.9490 hc         1 N2L       0.050200
    100 H39          7.8430    13.9780     1.9740 hc         1 N2L       0.050200
    101 H40          5.8420    11.7930     1.5020 h1         1 N2L       0.036700
    102 H41          5.8960    14.9060     3.5370 ha         1 N2L       0.127000
    103 H42          6.0280    14.9570     6.0000 ha         1 N2L       0.113000
    104 H43          6.2240    12.8250     7.2610 ha         1 N2L       0.113000
    105 H44          6.3040    10.6920     6.0450 ha         1 N2L       0.113000
    106 H45          7.0760    10.1440     2.7520 hc         1 N2L       0.083700
    107 H46          4.0090    10.1340     3.0440 hc         1 N2L       0.071700
    108 H47          4.9950     9.1600     1.8650 hc         1 N2L       0.071700
    109 H48          5.2000     9.0570     4.9620 hc         1 N2L       0.071700
    110 H49          6.2190     8.0920     3.8100 hc         1 N2L       0.071700
    111 H50         -4.7410     1.5510    11.0740 hc         1 N2L       0.056700
    112 H51         -3.4490     1.6440     9.8830 hc         1 N2L       0.056700
    113 H52         -2.2300     4.9960    12.4480 hn         1 N2L       0.529000
    114 H53         -0.8270     4.5860     9.9690 hn         1 N2L       0.356000
    115 N2          -3.0530     5.1590    11.8910 nu         1 N2L      -0.931200
@<TRIPOS>BOND
     1     1    18 1   
     2     1    54 1   
     3     1    55 1   
     4     2     9 1   
     5     2    61 1   
     6     2    62 1   
     7     3     4 ar  
     8     3    30 ar  
     9     3    63 1   
    10     4     5 ar  
    11     4    64 1   
    12     5    18 ar  
    13     5   115 1   
    14     6     7 1   
    15     6    65 1   
    16     6    66 1   
    17     6   115 1   
    18     7    20 1   
    19     7    49 1   
    20     7    67 1   
    21     8    49 1   
    22     8    56 1   
    23     8    68 1   
    24     8    69 1   
    25     9    21 1   
    26     9    59 2   
    27    10    21 ar  
    28    10    22 ar  
    29    10    70 1   
    30    11    22 ar  
    31    11    23 ar  
    32    11    52 1   
    33    12    13 ar  
    34    12    16 ar  
    35    12    60 1   
    36    13    50 ar  
    37    13    71 1   
    38    14    27 ar  
    39    14    50 ar  
    40    14    51 1   
    41    15    26 2   
    42    15    27 1   
    43    15    72 1   
    44    16    27 ar  
    45    16    73 1   
    46    17    28 1   
    47    17    29 1   
    48    17    74 1   
    49    17    75 1   
    50    18    25 ar  
    51    19    20 1   
    52    19    56 1   
    53    19    76 1   
    54    19    77 1   
    55    20    78 1   
    56    20    79 1   
    57    21    24 ar  
    58    22    80 1   
    59    23    24 ar  
    60    23    81 1   
    61    24    60 1   
    62    25    30 ar  
    63    25    82 1   
    64    26    51 1   
    65    26    83 1   
    66    28    52 1   
    67    28    84 1   
    68    28    85 1   
    69    29    31 1   
    70    29    33 1   
    71    29    35 1   
    72    30    61 1   
    73    31    32 1   
    74    31    86 1   
    75    31    87 1   
    76    32    52 1   
    77    32    88 1   
    78    32    89 1   
    79    33    34 1   
    80    33    90 1   
    81    33    91 1   
    82    34    35 1   
    83    34    53 1   
    84    34    92 1   
    85    35    93 1   
    86    35    94 1   
    87    36    37 1   
    88    36    53 1   
    89    36    95 1   
    90    36    96 1   
    91    37    38 1   
    92    37    97 1   
    93    37    98 1   
    94    38    39 1   
    95    38    99 1   
    96    38   100 1   
    97    39    40 1   
    98    39    53 1   
    99    39   101 1   
   100    40    41 ar  
   101    40    45 ar  
   102    41    42 ar  
   103    41   102 1   
   104    42    43 ar  
   105    42   103 1   
   106    43    44 ar  
   107    43   104 1   
   108    44    45 ar  
   109    44   105 1   
   110    45    46 1   
   111    46    47 1   
   112    46    48 1   
   113    46   106 1   
   114    47    48 1   
   115    47   107 1   
   116    47   108 1   
   117    48   109 1   
   118    48   110 1   
   119    49   111 1   
   120    49   112 1   
   121    51   114 1   
   122    57    61 2   
   123    58    61 2   
   124   113   115 1   
@<TRIPOS>SUBSTRUCTURE
     1 N2L         1 TEMP              0 ****  ****    0 ROOT
