@<TRIPOS>MOLECULE
N2L
  115   124     1     0     0
SMALL
No Charge or Current Charge


@<TRIPOS>ATOM
      1 N1          -2.7750     7.8540    13.1610 no         1 N2L       0.715200
      2 N3          -4.7980    10.7820     8.5890 ns         1 N2L      -0.582300
      3 C4          -5.6480     7.5780     9.9530 ca         1 N2L       0.096000
      4 C5          -5.1170     6.4100    10.5100 ca         1 N2L      -0.239000
      5 C6          -4.1850     6.4660    11.5570 ca         1 N2L       0.463000
      6 C7          -3.6100     3.9700    11.3980 c3         1 N2L       0.213800
      7 C8          -2.7790     2.9540    12.2330 c6         1 N2L      -0.076700
      8 C10         -1.6970     0.6390    12.2700 c6         1 N2L       0.155600
      9 C13         -4.3780    10.0510     7.5260 c          1 N2L       0.660700
     10 C15         -3.1430    12.0820     6.6390 ca         1 N2L      -0.021000
     11 C17         -1.1940    11.8560     5.1850 ca         1 N2L       0.367000
     12 C20         -1.9490     7.8300     7.2620 ca         1 N2L       0.060100
     13 C21         -2.1370     6.4250     7.3430 ca         1 N2L       0.355900
     14 C22         -1.1590     6.3180     9.4280 ca         1 N2L       0.332500
     15 C24         -0.2970     8.0410    10.6440 cc         1 N2L      -0.242200
     16 C26         -1.3330     8.4910     8.3490 ca         1 N2L      -0.110000
     17 C28          0.9290    12.8250     2.1990 c6         1 N2L      -0.068400
     18 C1          -3.7720     7.7180    12.0610 ca         1 N2L      -0.310200
     19 C11         -2.6630     1.4840    14.3220 c6         1 N2L       0.155600
     20 C12         -3.4800     2.5610    13.5670 c6         1 N2L      -0.113400
     21 C14         -3.2680    10.6770     6.7240 ca         1 N2L      -0.248600
     22 C16         -2.1150    12.6580     5.8760 ca         1 N2L      -0.202000
     23 C18         -1.3120    10.4620     5.2710 ca         1 N2L      -0.217000
     24 C19         -2.3310     9.8760     6.0330 ca         1 N2L       0.202100
     25 C2          -4.3020     8.8990    11.4930 ca         1 N2L       0.109000
     26 C23         -0.1110     6.8680    11.3570 cd         1 N2L      -0.150100
     27 C25         -0.9530     7.6810     9.4250 ca         1 N2L      -0.104800
     28 C27          0.3870    11.7910     3.2170 c6         1 N2L       0.209300
     29 C29          1.9620    13.7940     2.8560 cy         1 N2L      -0.074000
     30 C3          -5.2420     8.8240    10.4510 ca         1 N2L      -0.386500
     31 C30          1.3180    14.4550     4.1040 c6         1 N2L      -0.068400
     32 C31          0.7850    13.3930     5.0950 c6         1 N2L       0.209300
     33 C32          2.6700    14.7940     1.8760 cy         1 N2L      -0.078400
     34 C33          3.7510    13.6760     1.6660 cy         1 N2L       0.161500
     35 C34          3.3830    13.1810     3.1100 cy         1 N2L      -0.078400
     36 C35          5.3090    14.8020     0.1390 c5         1 N2L       0.158800
     37 C36          6.8480    14.9700     0.0980 c5         1 N2L      -0.080400
     38 C37          7.3760    13.6560     0.7580 c5         1 N2L      -0.075400
     39 C38          6.0850    12.9770     1.3200 c5         1 N2L       0.212800
     40 C39          6.4370    12.3180     2.6670 ca         1 N2L      -0.067300
     41 C40          6.7680    13.1330     3.7750 ca         1 N2L      -0.091000
     42 C41          7.0940    12.5700     5.0180 ca         1 N2L      -0.119000
     43 C42          7.1010    11.1780     5.1730 ca         1 N2L      -0.109000
     44 C43          6.7750    10.3530     4.0860 ca         1 N2L      -0.110000
     45 C44          6.4300    10.9070     2.8350 ca         1 N2L      -0.045300
     46 C45          6.0940     9.9780     1.6950 cx         1 N2L      -0.084400
     47 C46          4.6860     9.8540     1.1520 cx         1 N2L      -0.127900
     48 C47          5.3070     8.6990     1.8950 cx         1 N2L      -0.127900
     49 C9          -2.4660     1.6720    11.4110 c6         1 N2L      -0.113400
     50 N4          -1.7450     5.6670     8.4050 nb         1 N2L      -0.666000
     51 N5          -0.6470     5.7950    10.6010 na         1 N2L      -0.330400
     52 N6          -0.1690    12.4620     4.4270 nh         1 N2L      -0.785400
     53 N7           5.1470    14.1200     1.4380 n3         1 N2L      -0.702600
     54 O1          -2.6220     6.9160    13.9540 o          1 N2L      -0.430000
     55 O2          -2.2180     8.9490    13.3020 o          1 N2L      -0.430000
     56 O3          -2.4480     0.3400    13.4670 os         1 N2L      -0.444000
     57 O4          -7.1510    10.0080     9.0320 o          1 N2L      -0.529000
     58 O5          -5.8590    11.3890    10.7580 o          1 N2L      -0.529000
     59 O6          -4.8960     8.9890     7.2200 o          1 N2L      -0.547100
     60 O7          -2.3520     8.5060     6.1250 os         1 N2L      -0.242200
     61 S1          -5.9110    10.3300     9.7460 sy         1 N2L       1.197300
     62 H1          -4.3110    11.6210     8.8460 hn         1 N2L       0.345500
     63 H2          -6.3700     7.5040     9.1390 ha         1 N2L       0.155000
     64 H3          -5.4460     5.4540    10.1200 ha         1 N2L       0.130000
     65 H4          -4.6100     3.5540    11.2160 h1         1 N2L       0.061700
     66 H5          -3.1200     4.1010    10.4230 h1         1 N2L       0.061700
     67 H6          -1.8230     3.4440    12.4690 hc         1 N2L       0.046700
     68 H7          -1.5480    -0.2890    11.7000 h1         1 N2L       0.047700
     69 H8          -0.7080     1.0320    12.5490 h1         1 N2L       0.047700
     70 H9          -3.8530    12.7410     7.1350 ha         1 N2L       0.120000
     71 H10         -2.6080     5.8900     6.5190 h4         1 N2L       0.039100
     72 H11          0.0050     9.0360    10.9640 ha         1 N2L       0.215000
     73 H12         -1.1440     9.5610     8.3570 ha         1 N2L       0.132000
     74 H13          0.0860    13.4070     1.8010 hc         1 N2L       0.053950
     75 H14          1.3600    12.2920     1.3420 hc         1 N2L       0.053950
     76 H15         -1.6910     1.8910    14.6370 h1         1 N2L       0.047700
     77 H16         -3.2070     1.1620    15.2210 h1         1 N2L       0.047700
     78 H17         -3.6050     3.4400    14.2120 hc         1 N2L       0.056700
     79 H18         -4.4880     2.1750    13.3640 hc         1 N2L       0.056700
     80 H19         -2.0430    13.7390     5.8060 ha         1 N2L       0.122000
     81 H20         -0.5970     9.8200     4.7670 ha         1 N2L       0.134000
     82 H21         -3.9940     9.8770    11.8650 ha         1 N2L       0.162000
     83 H22          0.3530     6.7190    12.3320 h4         1 N2L       0.226000
     84 H23         -0.3910    11.1930     2.7210 h1         1 N2L       0.044200
     85 H24          1.1970    11.1050     3.5060 h1         1 N2L       0.044200
     86 H25          2.0410    15.1030     4.6170 hc         1 N2L       0.053950
     87 H26          0.4900    15.1050     3.7930 hc         1 N2L       0.053950
     88 H27          1.6320    12.8240     5.5080 h1         1 N2L       0.044200
     89 H28          0.3030    13.9100     5.9380 h1         1 N2L       0.044200
     90 H29          3.0550    15.7030     2.3510 hc         1 N2L       0.060200
     91 H30          2.1030    15.0810     0.9850 hc         1 N2L       0.060200
     92 H31          3.4440    12.9570     0.8970 h1         1 N2L       0.026700
     93 H32          3.4280    12.1010     3.2740 hc         1 N2L       0.060200
     94 H33          3.9520    13.6730     3.9080 hc         1 N2L       0.060200
     95 H34          4.7850    15.7670     0.0980 h1         1 N2L       0.036700
     96 H35          4.9530    14.1790    -0.6950 h1         1 N2L       0.036700
     97 H36          7.2200    15.1090    -0.9240 hc         1 N2L       0.049200
     98 H37          7.1570    15.8470     0.6770 hc         1 N2L       0.049200
     99 H38          7.8730    13.0030     0.0320 hc         1 N2L       0.050200
    100 H39          8.1150    13.8860     1.5330 hc         1 N2L       0.050200
    101 H40          5.7070    12.2530     0.5870 h1         1 N2L       0.036700
    102 H41          6.7650    14.2150     3.6680 ha         1 N2L       0.127000
    103 H42          7.3450    13.2140     5.8580 ha         1 N2L       0.113000
    104 H43          7.3610    10.7370     6.1330 ha         1 N2L       0.113000
    105 H44          6.7930     9.2740     4.2190 ha         1 N2L       0.113000
    106 H45          6.8990     9.9340     0.9640 hc         1 N2L       0.083700
    107 H46          3.8940    10.4050     1.6510 hc         1 N2L       0.071700
    108 H47          4.5670     9.7620     0.0750 hc         1 N2L       0.071700
    109 H48          4.9150     8.4770     2.8850 hc         1 N2L       0.071700
    110 H49          5.6060     7.8270     1.3190 hc         1 N2L       0.071700
    111 H50         -3.3980     1.2190    11.0470 hc         1 N2L       0.056700
    112 H51         -1.8720     1.9250    10.5220 hc         1 N2L       0.056700
    113 H52         -3.1320     5.3930    12.9160 hn         1 N2L       0.529000
    114 H53         -0.6540     4.8160    10.8530 hn         1 N2L       0.356000
    115 N2          -3.7030     5.2700    12.0780 nu         1 N2L      -0.931200
@<TRIPOS>BOND
     1     1    18 1   
     2     1    54 1   
     3     1    55 1   
     4     2     9 1   
     5     2    61 1   
     6     2    62 1   
     7     3     4 ar  
     8     3    30 ar  
     9     3    63 1   
    10     4     5 ar  
    11     4    64 1   
    12     5    18 ar  
    13     5   115 1   
    14     6     7 1   
    15     6    65 1   
    16     6    66 1   
    17     6   115 1   
    18     7    20 1   
    19     7    49 1   
    20     7    67 1   
    21     8    49 1   
    22     8    56 1   
    23     8    68 1   
    24     8    69 1   
    25     9    21 1   
    26     9    59 2   
    27    10    21 ar  
    28    10    22 ar  
    29    10    70 1   
    30    11    22 ar  
    31    11    23 ar  
    32    11    52 1   
    33    12    13 ar  
    34    12    16 ar  
    35    12    60 1   
    36    13    50 ar  
    37    13    71 1   
    38    14    27 ar  
    39    14    50 ar  
    40    14    51 1   
    41    15    26 2   
    42    15    27 1   
    43    15    72 1   
    44    16    27 ar  
    45    16    73 1   
    46    17    28 1   
    47    17    29 1   
    48    17    74 1   
    49    17    75 1   
    50    18    25 ar  
    51    19    20 1   
    52    19    56 1   
    53    19    76 1   
    54    19    77 1   
    55    20    78 1   
    56    20    79 1   
    57    21    24 ar  
    58    22    80 1   
    59    23    24 ar  
    60    23    81 1   
    61    24    60 1   
    62    25    30 ar  
    63    25    82 1   
    64    26    51 1   
    65    26    83 1   
    66    28    52 1   
    67    28    84 1   
    68    28    85 1   
    69    29    31 1   
    70    29    33 1   
    71    29    35 1   
    72    30    61 1   
    73    31    32 1   
    74    31    86 1   
    75    31    87 1   
    76    32    52 1   
    77    32    88 1   
    78    32    89 1   
    79    33    34 1   
    80    33    90 1   
    81    33    91 1   
    82    34    35 1   
    83    34    53 1   
    84    34    92 1   
    85    35    93 1   
    86    35    94 1   
    87    36    37 1   
    88    36    53 1   
    89    36    95 1   
    90    36    96 1   
    91    37    38 1   
    92    37    97 1   
    93    37    98 1   
    94    38    39 1   
    95    38    99 1   
    96    38   100 1   
    97    39    40 1   
    98    39    53 1   
    99    39   101 1   
   100    40    41 ar  
   101    40    45 ar  
   102    41    42 ar  
   103    41   102 1   
   104    42    43 ar  
   105    42   103 1   
   106    43    44 ar  
   107    43   104 1   
   108    44    45 ar  
   109    44   105 1   
   110    45    46 1   
   111    46    47 1   
   112    46    48 1   
   113    46   106 1   
   114    47    48 1   
   115    47   107 1   
   116    47   108 1   
   117    48   109 1   
   118    48   110 1   
   119    49   111 1   
   120    49   112 1   
   121    51   114 1   
   122    57    61 2   
   123    58    61 2   
   124   113   115 1   
@<TRIPOS>SUBSTRUCTURE
     1 N2L         1 TEMP              0 ****  ****    0 ROOT
