@<TRIPOS>MOLECULE
N2M
   23    24     1     0     0
SMALL
bcc


@<TRIPOS>ATOM
      1 S            5.5070    -4.7180    -1.2410 s6         1 N2M       1.261100
      2 O1S          5.3170    -5.5220    -2.4610 o          1 N2M      -0.692533
      3 O2S          6.2150    -3.4490    -1.4800 o          1 N2M      -0.692533
      4 O3S          6.0600    -5.4930    -0.1170 o          1 N2M      -0.692533
      5 C1           3.4300    -2.9840    -0.6980 ca         1 N2M      -0.042000
      6 C2           3.8500    -4.2820    -0.7290 ca         1 N2M      -0.214500
      7 C3           2.9660    -5.3250    -0.3790 ca         1 N2M      -0.034000
      8 C4           1.6870    -5.0350     0.0030 ca         1 N2M      -0.165000
      9 C5          -0.1130    -3.3730     0.4640 ca         1 N2M       0.143600
     10 C6          -0.5050    -2.0480     0.4500 ca         1 N2M      -0.224000
     11 C7           0.3780    -1.0300     0.0600 ca         1 N2M      -0.118000
     12 C8           1.6660    -1.3130    -0.3070 ca         1 N2M      -0.143000
     13 C9           2.1070    -2.6560    -0.3130 ca         1 N2M      -0.033000
     14 C10          1.2200    -3.6990     0.0590 ca         1 N2M      -0.045000
     15 N           -0.9990    -4.3730     0.8050 nv         1 N2M      -0.819200
     16 H3           3.2930    -6.3560    -0.4160 ha         1 N2M       0.142000
     17 H4           1.0290    -5.8570     0.2510 ha         1 N2M       0.109000
     18 H6          -1.5120    -1.7900     0.7560 ha         1 N2M       0.109000
     19 H7           0.0290    -0.0050     0.0670 ha         1 N2M       0.111000
     20 H8           2.3510    -0.5250    -0.5950 ha         1 N2M       0.128000
     21 HN1         -0.6130    -5.1640     1.2940 hn         1 N2M       0.379300
     22 HN2         -1.8370    -4.0500     1.2640 hn         1 N2M       0.379300
     23 H1           4.1050    -2.1810    -0.9710 ha         1 N2M       0.153000
@<TRIPOS>BOND
     1     1     2 1   
     2     1     3 1   
     3     1     4 1   
     4     1     6 1   
     5     5     6 ar  
     6     5    13 ar  
     7     5    23 1   
     8     6     7 ar  
     9     7     8 ar  
    10     7    16 1   
    11     8    14 ar  
    12     8    17 1   
    13     9    10 ar  
    14     9    14 ar  
    15     9    15 1   
    16    10    11 ar  
    17    10    18 1   
    18    11    12 ar  
    19    11    19 1   
    20    12    13 ar  
    21    12    20 1   
    22    13    14 ar  
    23    15    21 1   
    24    15    22 1   
@<TRIPOS>SUBSTRUCTURE
     1 N2M         1 TEMP              0 ****  ****    0 ROOT
