@<TRIPOS>MOLECULE
N2M
   23    24     1     0     0
SMALL
No Charge or Current Charge


@<TRIPOS>ATOM
      1 S            5.6000    -4.7230    -1.2720 s6         1 N2M       1.261100
      2 O1S          5.3920    -4.9810    -2.7040 o          1 N2M      -0.692533
      3 O2S          6.3270    -3.4850    -0.9480 o          1 N2M      -0.692533
      4 O3S          5.9220    -5.9010    -0.4520 o          1 N2M      -0.692533
      5 C1           3.4060    -2.9910    -0.7610 ca         1 N2M      -0.024000
      6 C2           3.8760    -4.3200    -0.7250 ca         1 N2M      -0.214500
      7 C3           3.0090    -5.3410    -0.2890 ca         1 N2M      -0.016000
      8 C4           1.6970    -5.0390     0.1180 ca         1 N2M      -0.147000
      9 C5          -0.0980    -3.3670     0.4980 ca         1 N2M       0.282000
     10 C6          -0.5220    -2.0300     0.4490 ca         1 N2M      -0.206000
     11 C7           0.3460    -1.0210     0.0030 ca         1 N2M      -0.100000
     12 C8           1.6500    -1.3470    -0.3970 ca         1 N2M      -0.125000
     13 C9           2.0930    -2.6820    -0.3550 ca         1 N2M      -0.033000
     14 C10          1.2220    -3.7050     0.0930 ca         1 N2M      -0.045000
     15 N           -0.9970    -4.3050     0.9470 nv         1 N2M      -1.068000
     16 H3           3.3470    -6.3750    -0.2650 ha         1 N2M       0.124000
     17 H4           1.0600    -5.8540     0.4480 ha         1 N2M       0.091000
     18 H6          -1.5300    -1.7650     0.7570 ha         1 N2M       0.091000
     19 H7           0.0090     0.0130    -0.0310 ha         1 N2M       0.093000
     20 H8           2.3170    -0.5580    -0.7410 ha         1 N2M       0.110000
     21 HN1         -0.6820    -5.2520     1.1380 hn         1 N2M       0.434500
     22 HN2         -1.8770    -4.0050     1.3610 hn         1 N2M       0.434500
     23 H1           4.0620    -2.1950    -1.1070 ha         1 N2M       0.135000
@<TRIPOS>BOND
     1     1     2 1   
     2     1     3 1   
     3     1     4 1   
     4     1     6 1   
     5     5     6 ar  
     6     5    13 ar  
     7     5    23 1   
     8     6     7 ar  
     9     7     8 ar  
    10     7    16 1   
    11     8    14 ar  
    12     8    17 1   
    13     9    10 ar  
    14     9    14 ar  
    15     9    15 1   
    16    10    11 ar  
    17    10    18 1   
    18    11    12 ar  
    19    11    19 1   
    20    12    13 ar  
    21    12    20 1   
    22    13    14 ar  
    23    15    21 1   
    24    15    22 1   
@<TRIPOS>SUBSTRUCTURE
     1 N2M         1 TEMP              0 ****  ****    0 ROOT
