@<TRIPOS>MOLECULE
N2O
    3     2     1     0     0
SMALL
bcc


@<TRIPOS>ATOM
      1 O3          12.5620   -12.0530    -7.6540 o          1 N2O      -0.233700
      2 N2          11.6040   -12.7320    -7.6920 n2         1 N2O       0.309700
      3 N1          10.6960   -13.3770    -7.7270 n1         1 N2O      -0.076000
@<TRIPOS>BOND
     1     1     2 2   
     2     2     3 3   
@<TRIPOS>SUBSTRUCTURE
     1 N2O         1 TEMP              0 ****  ****    0 ROOT
