@<TRIPOS>MOLECULE
N2O
    3     2     1     0     0
SMALL
No Charge or Current Charge


@<TRIPOS>ATOM
      1 O3          12.5750   -12.2010    -7.5420 o          1 N2O      -0.233700
      2 N2          11.4570   -12.4790    -7.9500 n2         1 N2O       0.309700
      3 N1          10.8300   -13.4810    -7.5810 n1         1 N2O      -0.076000
@<TRIPOS>BOND
     1     1     2 2   
     2     2     3 3   
@<TRIPOS>SUBSTRUCTURE
     1 N2O         1 TEMP              0 ****  ****    0 ROOT
