@<TRIPOS>MOLECULE
N2P
   21    20     1     0     0
SMALL
abcg2


@<TRIPOS>ATOM
      1 C1           0.4590    -0.0180     2.5440 c3         1 N2P       0.149300
      2 C2          -0.3770    -0.0040     1.2740 c3         1 N2P      -0.078400
      3 C3           0.4730    -0.0010     0.0100 c3         1 N2P      -0.075400
      4 C4          -0.3550    -0.0010    -1.2680 c3         1 N2P      -0.078400
      5 NE2         -0.3890     0.0030     3.7290 n8         1 N2P      -0.995700
      6 C5           0.5030     0.0170    -2.5250 c3         1 N2P       0.149300
      7 N1          -0.3240     0.0070    -3.7230 n8         1 N2P      -0.995700
      8 H1C1         1.1760     0.8160     2.5050 h1         1 N2P       0.025200
      9 H1C2         1.0560    -0.9330     2.5670 h1         1 N2P       0.025200
     10 H2C1        -1.0420    -0.8740     1.2720 hc         1 N2P       0.046700
     11 H2C2        -1.0250     0.8810     1.2760 hc         1 N2P       0.046700
     12 H3C1         1.1310     0.8760     0.0160 hc         1 N2P       0.035700
     13 H3C2         1.1340    -0.8750     0.0150 hc         1 N2P       0.035700
     14 H4C1        -0.9990    -0.8870    -1.2830 hc         1 N2P       0.046700
     15 H4C2        -1.0240     0.8660    -1.2780 hc         1 N2P       0.046700
     16 HE21         0.1910    -0.0360     4.5580 hn         1 N2P       0.391000
     17 HE22        -0.8670     0.8950     3.7770 hn         1 N2P       0.391000
     18 H5C1         1.1040     0.9310    -2.5310 h1         1 N2P       0.025200
     19 H5C2         1.2160    -0.8180    -2.4780 h1         1 N2P       0.025200
     20 H1N1         0.2670     0.0530    -4.5430 hn         1 N2P       0.391000
     21 H1N2        -0.8040    -0.8820    -3.7860 hn         1 N2P       0.391000
@<TRIPOS>BOND
     1     1     2 1   
     2     1     5 1   
     3     1     8 1   
     4     1     9 1   
     5     2     3 1   
     6     2    10 1   
     7     2    11 1   
     8     3     4 1   
     9     3    12 1   
    10     3    13 1   
    11     4     6 1   
    12     4    14 1   
    13     4    15 1   
    14     5    16 1   
    15     5    17 1   
    16     6     7 1   
    17     6    18 1   
    18     6    19 1   
    19     7    20 1   
    20     7    21 1   
@<TRIPOS>SUBSTRUCTURE
     1 N2P         1 TEMP              0 ****  ****    0 ROOT
