@<TRIPOS>MOLECULE
N2P
   21    20     1     0     0
SMALL
No Charge or Current Charge


@<TRIPOS>ATOM
      1 C1           0.4680    -0.0210     2.5820 c3         1 N2P       0.149300
      2 C2          -0.3780    -0.0100     1.2920 c3         1 N2P      -0.078400
      3 C3           0.4840     0.0010     0.0100 c3         1 N2P      -0.075400
      4 C4          -0.3560     0.0110    -1.2870 c3         1 N2P      -0.078400
      5 NE2         -0.3810    -0.0330     3.7870 n8         1 N2P      -0.995700
      6 C5           0.5120     0.0220    -2.5630 c3         1 N2P       0.149300
      7 N1          -0.3160     0.0350    -3.7820 n8         1 N2P      -0.995700
      8 H1C1         1.1090     0.8710     2.6130 h1         1 N2P       0.025200
      9 H1C2         1.1110    -0.9120     2.5960 h1         1 N2P       0.025200
     10 H2C1        -1.0290    -0.8930     1.2800 hc         1 N2P       0.046700
     11 H2C2        -1.0300     0.8720     1.2940 hc         1 N2P       0.046700
     12 H3C1         1.1370     0.8830     0.0220 hc         1 N2P       0.035700
     13 H3C2         1.1380    -0.8810     0.0080 hc         1 N2P       0.035700
     14 H4C1        -1.0080    -0.8710    -1.3000 hc         1 N2P       0.046700
     15 H4C2        -1.0070     0.8940    -1.2870 hc         1 N2P       0.046700
     16 HE21         0.2190     0.0230     4.6190 hn         1 N2P       0.391000
     17 HE22        -0.9230     0.8390     3.8220 hn         1 N2P       0.391000
     18 H5C1         1.1550     0.9140    -2.5650 h1         1 N2P       0.025200
     19 H5C2         1.1540    -0.8700    -2.5820 h1         1 N2P       0.025200
     20 H1N1         0.2980    -0.0220    -4.6040 hn         1 N2P       0.391000
     21 H1N2        -0.8570    -0.8370    -3.8260 hn         1 N2P       0.391000
@<TRIPOS>BOND
     1     1     2 1   
     2     1     5 1   
     3     1     8 1   
     4     1     9 1   
     5     2     3 1   
     6     2    10 1   
     7     2    11 1   
     8     3     4 1   
     9     3    12 1   
    10     3    13 1   
    11     4     6 1   
    12     4    14 1   
    13     4    15 1   
    14     5    16 1   
    15     5    17 1   
    16     6     7 1   
    17     6    18 1   
    18     6    19 1   
    19     7    20 1   
    20     7    21 1   
@<TRIPOS>SUBSTRUCTURE
     1 N2P         1 TEMP              0 ****  ****    0 ROOT
