@<TRIPOS>MOLECULE
N2Q
   19    20     1     0     0
SMALL
abcg2


@<TRIPOS>ATOM
      1 O4          17.5890    -9.7900   -22.7100 os         1 N2Q      -0.227000
      2 C11         15.6570   -11.2510   -22.7590 c3         1 N2Q      -0.124400
      3 C10         19.8260    -8.1520   -23.7280 cc         1 N2Q      -0.196000
      4 C9          20.9620    -7.3340   -23.6460 cc         1 N2Q       0.234900
      5 C1          17.8850    -9.2570   -20.5790 cc         1 N2Q      -0.169000
      6 C2          16.7590   -10.1210   -20.6890 cc         1 N2Q      -0.184000
      7 C6          19.4490    -8.3460   -22.4120 cd         1 N2Q      -0.186500
      8 C5          18.3540    -9.0890   -21.8440 cd         1 N2Q       0.196500
      9 C3          16.6200   -10.4160   -22.0060 cd         1 N2Q       0.148300
     10 N7          20.3430    -7.6630   -21.6670 na         1 N2Q       0.003800
     11 N8          21.2660    -7.0440   -22.3940 nd         1 N2Q      -0.510800
     12 H1          16.1570   -12.0560   -23.3020 hc         1 N2Q       0.056700
     13 H2          14.9470   -11.7020   -22.0690 hc         1 N2Q       0.056700
     14 H3          15.0940   -10.6630   -23.4860 hc         1 N2Q       0.056700
     15 H5          21.5640    -6.9490   -24.4560 h4         1 N2Q       0.038100
     16 H6          18.2890    -8.8200   -19.6790 ha         1 N2Q       0.138000
     17 H7          16.1300   -10.4790   -19.8890 ha         1 N2Q       0.143000
     18 H8          20.3750    -7.5950   -20.6620 hn         1 N2Q       0.372000
     19 H4          19.3490    -8.5400   -24.6120 ha         1 N2Q       0.153000
@<TRIPOS>BOND
     1     1     8 1   
     2     1     9 1   
     3     2     9 1   
     4     2    12 1   
     5     2    13 1   
     6     2    14 1   
     7     3     4 1   
     8     3     7 2   
     9     3    19 1   
    10     4    11 2   
    11     4    15 1   
    12     5     6 1   
    13     5     8 2   
    14     5    16 1   
    15     6     9 2   
    16     6    17 1   
    17     7     8 1   
    18     7    10 1   
    19    10    11 1   
    20    10    18 1   
@<TRIPOS>SUBSTRUCTURE
     1 N2Q         1 TEMP              0 ****  ****    0 ROOT
