@<TRIPOS>MOLECULE
N2Q
   19    20     1     0     0
SMALL
No Charge or Current Charge


@<TRIPOS>ATOM
      1 O4          17.5440    -9.8170   -22.8770 os         1 N2Q      -0.227000
      2 C11         15.5590   -11.2840   -22.7070 c3         1 N2Q      -0.124400
      3 C10         19.8830    -8.1530   -23.6790 cc         1 N2Q      -0.196000
      4 C9          21.0000    -7.3080   -23.5920 cc         1 N2Q       0.234900
      5 C1          17.9400    -9.2820   -20.6910 cc         1 N2Q      -0.169000
      6 C2          16.8160   -10.1300   -20.7440 cc         1 N2Q      -0.184000
      7 C6          19.4590    -8.3320   -22.4010 cd         1 N2Q      -0.186500
      8 C5          18.3360    -9.1270   -21.9910 cd         1 N2Q       0.196500
      9 C3          16.6120   -10.4260   -22.0670 cd         1 N2Q       0.148300
     10 N7          20.3270    -7.5940   -21.5910 na         1 N2Q       0.003800
     11 N8          21.3040    -6.9460   -22.3560 nd         1 N2Q      -0.510800
     12 H1          16.0140   -12.1160   -23.2570 hc         1 N2Q       0.056700
     13 H2          14.8840   -11.7080   -21.9540 hc         1 N2Q       0.056700
     14 H3          14.9550   -10.7010   -23.4110 hc         1 N2Q       0.056700
     15 H5          21.6080    -6.9420   -24.4080 h4         1 N2Q       0.038100
     16 H6          18.3830    -8.8540   -19.7980 ha         1 N2Q       0.138000
     17 H7          16.2320   -10.4750   -19.8960 ha         1 N2Q       0.143000
     18 H8          20.2940    -7.5080   -20.5750 hn         1 N2Q       0.372000
     19 H4          19.4660    -8.5650   -24.5930 ha         1 N2Q       0.153000
@<TRIPOS>BOND
     1     1     8 1   
     2     1     9 1   
     3     2     9 1   
     4     2    12 1   
     5     2    13 1   
     6     2    14 1   
     7     3     4 1   
     8     3     7 2   
     9     3    19 1   
    10     4    11 2   
    11     4    15 1   
    12     5     6 1   
    13     5     8 2   
    14     5    16 1   
    15     6     9 2   
    16     6    17 1   
    17     7     8 1   
    18     7    10 1   
    19    10    11 1   
    20    10    18 1   
@<TRIPOS>SUBSTRUCTURE
     1 N2Q         1 TEMP              0 ****  ****    0 ROOT
