@<TRIPOS>MOLECULE
N2T
   54    57     1     0     0
SMALL
No Charge or Current Charge


@<TRIPOS>ATOM
      1 C1           5.2760     1.7150    -1.1260 ca         1 N2T       0.159000
      2 C2           4.0660     1.0200    -1.2790 ca         1 N2T      -0.122000
      3 C3           3.2150     0.8120    -0.1720 ca         1 N2T      -0.044800
      4 C4           3.6090     1.3150     1.0920 ca         1 N2T       0.163000
      5 C5           4.8230     2.0090     1.2410 ca         1 N2T      -0.125000
      6 C6           5.6590     2.2110     0.1290 ca         1 N2T      -0.123000
      7 C10          1.9300     0.0750    -0.3630 ce         1 N2T      -0.094400
      8 C11          0.6220     0.5510     0.2210 c5         1 N2T       0.147200
      9 N12         -0.3370    -0.4000    -0.3950 n          1 N2T      -0.427800
     10 C13          0.3810    -1.4470    -1.1770 c5         1 N2T       0.190200
     11 C14          1.8370    -1.0200    -1.1300 c2         1 N2T      -0.194200
     12 C17          0.1970    -2.7680    -0.4260 ca         1 N2T      -0.085300
     13 C19          0.7040    -2.9550     0.8800 ca         1 N2T      -0.088500
     14 C20          0.5200    -4.1760     1.5520 ca         1 N2T      -0.115000
     15 C21         -0.1740    -5.2250     0.9280 ca         1 N2T      -0.105000
     16 C22         -0.6840    -5.0510    -0.3680 ca         1 N2T      -0.115000
     17 C23         -0.5000    -3.8290    -1.0400 ca         1 N2T      -0.088500
     18 C8          -1.6940    -0.1010    -0.6500 c          1 N2T       0.660100
     19 N1          -2.3980     0.8350     0.1540 n          1 N2T      -0.421800
     20 C35         -3.7350     1.3390    -0.2850 c6         1 N2T       0.117700
     21 F40          2.8380     1.1190     2.1850 f          1 N2T      -0.176000
     22 F41          6.0770     1.9090    -2.1970 f          1 N2T      -0.173000
     23 O2          -2.2660    -0.6560    -1.5790 o          1 N2T      -0.632100
     24 C15         -4.8970     0.5120     0.3240 c6         1 N2T      -0.090900
     25 C26         -1.9790     1.1180     1.5500 c3         1 N2T       0.091300
     26 C12         -3.9500     2.8470     0.0250 c6         1 N2T      -0.090900
     27 C9          -6.2630     1.0380    -0.1760 c6         1 N2T       0.160300
     28 C16         -5.3380     3.3100    -0.4770 c6         1 N2T       0.160300
     29 N2          -6.4190     2.4840     0.1110 n7         1 N2T      -0.865400
     30 H2           3.7860     0.6540    -2.2630 ha         1 N2T       0.139000
     31 H5           5.1130     2.3850     2.2190 ha         1 N2T       0.138000
     32 H6           6.5990     2.7470     0.2370 ha         1 N2T       0.139000
     33 H111         0.4060     1.5910    -0.0580 h1         1 N2T       0.061200
     34 H112         0.6190     0.4640     1.3140 h1         1 N2T       0.061200
     35 H13          0.0200    -1.5120    -2.2130 h1         1 N2T       0.083700
     36 H14          2.6600    -1.5060    -1.6550 ha         1 N2T       0.203000
     37 H19          1.2410    -2.1510     1.3780 ha         1 N2T       0.115000
     38 H20          0.9150    -4.3070     2.5570 ha         1 N2T       0.112000
     39 H21         -0.3170    -6.1700     1.4480 ha         1 N2T       0.111000
     40 H22         -1.2240    -5.8610    -0.8530 ha         1 N2T       0.112000
     41 H23         -0.9030    -3.7060    -2.0420 ha         1 N2T       0.115000
     42 H35         -3.7990     1.2390    -1.3790 h1         1 N2T       0.073700
     43 H151        -4.7890    -0.5460     0.0500 hc         1 N2T       0.053450
     44 H152        -4.8690     0.5570     1.4210 hc         1 N2T       0.053450
     45 H261        -1.4840     0.2390     1.9820 h1         1 N2T       0.039033
     46 H262        -1.2990     1.9790     1.5700 h1         1 N2T       0.039033
     47 H263        -2.8490     1.3460     2.1780 h1         1 N2T       0.039033
     48 H121        -3.8800     3.0440     1.1020 hc         1 N2T       0.053450
     49 H122        -3.1650     3.4440    -0.4580 hc         1 N2T       0.053450
     50 H91         -6.3450     0.8690    -1.2600 h1         1 N2T       0.031450
     51 H92         -7.0750     0.4770     0.3110 h1         1 N2T       0.031450
     52 H161        -5.3750     3.2360    -1.5750 h1         1 N2T       0.031450
     53 H162        -5.4940     4.3650    -0.2090 h1         1 N2T       0.031450
     54 HN2         -7.3220     2.8020    -0.2650 hn         1 N2T       0.411000
@<TRIPOS>BOND
     1     1     2 ar  
     2     1     6 ar  
     3     1    22 1   
     4     2     3 ar  
     5     2    30 1   
     6     3     4 ar  
     7     3     7 1   
     8     4     5 ar  
     9     4    21 1   
    10     5     6 ar  
    11     5    31 1   
    12     6    32 1   
    13     7     8 1   
    14     7    11 2   
    15     8     9 1   
    16     8    33 1   
    17     8    34 1   
    18     9    10 1   
    19     9    18 1   
    20    10    11 1   
    21    10    12 1   
    22    10    35 1   
    23    11    36 1   
    24    12    13 ar  
    25    12    17 ar  
    26    13    14 ar  
    27    13    37 1   
    28    14    15 ar  
    29    14    38 1   
    30    15    16 ar  
    31    15    39 1   
    32    16    17 ar  
    33    16    40 1   
    34    17    41 1   
    35    18    19 1   
    36    18    23 2   
    37    19    20 1   
    38    19    25 1   
    39    20    24 1   
    40    20    26 1   
    41    20    42 1   
    42    24    27 1   
    43    24    43 1   
    44    24    44 1   
    45    25    45 1   
    46    25    46 1   
    47    25    47 1   
    48    26    28 1   
    49    26    48 1   
    50    26    49 1   
    51    27    29 1   
    52    27    50 1   
    53    27    51 1   
    54    28    29 1   
    55    28    52 1   
    56    28    53 1   
    57    29    54 1   
@<TRIPOS>SUBSTRUCTURE
     1 N2T         1 TEMP              0 ****  ****    0 ROOT
