@<TRIPOS>MOLECULE
N2T
   54    57     1     0     0
SMALL
abcg2


@<TRIPOS>ATOM
      1 C1           5.3160     1.5190    -1.1270 ca         1 N2T       0.159000
      2 C2           4.1120     0.8600    -1.2490 ca         1 N2T      -0.122000
      3 C3           3.1770     0.9070    -0.2100 ca         1 N2T      -0.044800
      4 C4           3.5260     1.6450     0.9160 ca         1 N2T       0.163000
      5 C5           4.7290     2.3110     1.0340 ca         1 N2T      -0.125000
      6 C6           5.6460     2.2510    -0.0030 ca         1 N2T      -0.123000
      7 C10          1.9060     0.1850    -0.3420 ce         1 N2T      -0.094400
      8 C11          0.5780     0.7210     0.1160 c5         1 N2T       0.147200
      9 N12         -0.3510    -0.3240    -0.3050 n          1 N2T      -0.427800
     10 C13          0.3170    -1.4060    -1.0170 c5         1 N2T       0.190200
     11 C14          1.7520    -0.9910    -0.9430 c2         1 N2T      -0.194200
     12 C17          0.0640    -2.7630    -0.4010 ca         1 N2T      -0.085300
     13 C19          0.1020    -2.9350     0.9800 ca         1 N2T      -0.088500
     14 C20         -0.1010    -4.1880     1.5390 ca         1 N2T      -0.115000
     15 C21         -0.3400    -5.2870     0.7210 ca         1 N2T      -0.105000
     16 C22         -0.3770    -5.1230    -0.6560 ca         1 N2T      -0.115000
     17 C23         -0.1780    -3.8650    -1.2120 ca         1 N2T      -0.088500
     18 C8          -1.6850    -0.1210    -0.5530 c          1 N2T       0.660100
     19 N1          -2.3180     0.8070     0.2220 n          1 N2T      -0.421800
     20 C35         -3.6320     1.2750    -0.2040 c6         1 N2T       0.117700
     21 F40          2.6710     1.7040     1.9510 f          1 N2T      -0.176000
     22 F41          6.1910     1.4570    -2.1430 f          1 N2T      -0.173000
     23 O2          -2.2620    -0.7480    -1.4360 o          1 N2T      -0.632100
     24 C15         -4.7890     0.4770     0.3990 c6         1 N2T      -0.090900
     25 C26         -1.9380     1.0550     1.6010 c3         1 N2T       0.091300
     26 C12         -3.8130     2.7650     0.0820 c6         1 N2T      -0.090900
     27 C9          -6.1210     1.0320    -0.0890 c6         1 N2T       0.160300
     28 C16         -5.1840     3.2200    -0.4020 c6         1 N2T       0.160300
     29 N2          -6.2230     2.4410     0.2460 n7         1 N2T      -0.865400
     30 H2           3.8810     0.3190    -2.1580 ha         1 N2T       0.139000
     31 H5           4.9520     2.8690     1.9340 ha         1 N2T       0.138000
     32 H6           6.5930     2.7690     0.0660 ha         1 N2T       0.139000
     33 H111         0.3470     1.6830    -0.3560 h1         1 N2T       0.061200
     34 H112         0.5610     0.8800     1.1940 h1         1 N2T       0.061200
     35 H13          0.0040    -1.4440    -2.0670 h1         1 N2T       0.083700
     36 H14          2.5410    -1.6030    -1.3590 ha         1 N2T       0.203000
     37 H19          0.2810    -2.0820     1.6240 ha         1 N2T       0.115000
     38 H20         -0.0740    -4.3090     2.6140 ha         1 N2T       0.112000
     39 H21         -0.5010    -6.2650     1.1570 ha         1 N2T       0.111000
     40 H22         -0.5690    -5.9720    -1.3000 ha         1 N2T       0.112000
     41 H23         -0.2180    -3.7390    -2.2880 ha         1 N2T       0.115000
     42 H35         -3.6750     1.1490    -1.2880 h1         1 N2T       0.073700
     43 H151        -4.6980    -0.5740     0.1210 hc         1 N2T       0.053450
     44 H152        -4.7620     0.5310     1.4910 hc         1 N2T       0.053450
     45 H261        -1.3540     0.2250     1.9960 h1         1 N2T       0.039033
     46 H262        -1.3690     1.9770     1.7310 h1         1 N2T       0.039033
     47 H263        -2.8320     1.1290     2.2170 h1         1 N2T       0.039033
     48 H121        -3.7310     2.9660     1.1530 hc         1 N2T       0.053450
     49 H122        -3.0310     3.3390    -0.4200 hc         1 N2T       0.053450
     50 H91         -6.2070     0.8500    -1.1730 h1         1 N2T       0.031450
     51 H92         -6.9440     0.4940     0.3860 h1         1 N2T       0.031450
     52 H161        -5.2170     3.1340    -1.5020 h1         1 N2T       0.031450
     53 H162        -5.3290     4.2750    -0.1630 h1         1 N2T       0.031450
     54 HN2         -7.1300     2.7900    -0.0350 hn         1 N2T       0.411000
@<TRIPOS>BOND
     1     1     2 ar  
     2     1     6 ar  
     3     1    22 1   
     4     2     3 ar  
     5     2    30 1   
     6     3     4 ar  
     7     3     7 1   
     8     4     5 ar  
     9     4    21 1   
    10     5     6 ar  
    11     5    31 1   
    12     6    32 1   
    13     7     8 1   
    14     7    11 2   
    15     8     9 1   
    16     8    33 1   
    17     8    34 1   
    18     9    10 1   
    19     9    18 1   
    20    10    11 1   
    21    10    12 1   
    22    10    35 1   
    23    11    36 1   
    24    12    13 ar  
    25    12    17 ar  
    26    13    14 ar  
    27    13    37 1   
    28    14    15 ar  
    29    14    38 1   
    30    15    16 ar  
    31    15    39 1   
    32    16    17 ar  
    33    16    40 1   
    34    17    41 1   
    35    18    19 1   
    36    18    23 2   
    37    19    20 1   
    38    19    25 1   
    39    20    24 1   
    40    20    26 1   
    41    20    42 1   
    42    24    27 1   
    43    24    43 1   
    44    24    44 1   
    45    25    45 1   
    46    25    46 1   
    47    25    47 1   
    48    26    28 1   
    49    26    48 1   
    50    26    49 1   
    51    27    29 1   
    52    27    50 1   
    53    27    51 1   
    54    28    29 1   
    55    28    52 1   
    56    28    53 1   
    57    29    54 1   
@<TRIPOS>SUBSTRUCTURE
     1 N2T         1 TEMP              0 ****  ****    0 ROOT
