@<TRIPOS>MOLECULE
N2U
   62    64     1     0     0
SMALL
abcg2


@<TRIPOS>ATOM
      1 C10         21.6320    29.6770    16.1170 cc         1 N2U      -0.055300
      2 C17         19.8080    29.9690    18.7220 c2         1 N2U      -0.140200
      3 C21         18.7090    33.5110    20.7100 c3         1 N2U       0.168600
      4 C22         19.5290    33.6050    21.9740 c3         1 N2U      -0.097100
      5 C24         18.9080    30.8750    16.5950 c6         1 N2U       0.173700
      6 C28         21.8110    33.9580    15.0090 c3         1 N2U      -0.107100
      7 C11         20.3930    28.9120    16.5090 c6         1 N2U       0.203400
      8 C12         20.3940    27.4890    15.9270 c          1 N2U       0.588100
      9 C14         21.7170    25.5820    15.4830 c3         1 N2U       0.149900
     10 C16         20.3160    28.7380    18.0460 c6         1 N2U      -0.080200
     11 C18         19.1770    30.9490    18.0780 ce         1 N2U      -0.174400
     12 C19         18.6130    32.1230    18.7820 c          1 N2U       0.614300
     13 C25         19.5710    32.0150    15.7870 c          1 N2U       0.622100
     14 C27         20.7780    34.1550    16.1100 c3         1 N2U       0.207000
     15 C29         19.6150    35.0360    15.6700 c3         1 N2U      -0.107100
     16 C30         21.4310    34.6960    17.3740 c3         1 N2U      -0.107100
     17 C01         21.2970    29.3630    13.6160 c3         1 N2U       0.055900
     18 C03         23.1490    30.6040    14.7430 ca         1 N2U      -0.037200
     19 C04         23.8850    31.0610    13.6480 ca         1 N2U      -0.124000
     20 C05         25.0270    31.8030    13.9080 ca         1 N2U      -0.096000
     21 C06         25.4360    32.0830    15.2260 ca         1 N2U      -0.147000
     22 C07         24.7110    31.6190    16.3110 ca         1 N2U      -0.063000
     23 C08         23.5530    30.8640    16.0800 ca         1 N2U      -0.104800
     24 C09         22.5750    30.2590    16.9260 cd         1 N2U      -0.209200
     25 N02         21.9720    29.8920    14.7870 na         1 N2U      -0.069700
     26 N32         19.1910    29.5810    15.9930 n7         1 N2U      -0.853400
     27 O13         21.6070    26.9480    15.9440 os         1 N2U      -0.426100
     28 O15         19.3950    26.9170    15.5580 o          1 N2U      -0.482000
     29 O20         19.2160    32.3870    19.9440 os         1 N2U      -0.450100
     30 O23         17.6870    32.7810    18.3440 o          1 N2U      -0.495000
     31 O26         20.2430    32.8490    16.5690 os         1 N2U      -0.465100
     32 O31         19.4170    32.1280    14.5930 o          1 N2U      -0.483000
     33 H171        19.9410    30.0290    19.7950 ha         1 N2U       0.198000
     34 H212        17.6530    33.3400    20.9190 h1         1 N2U       0.050700
     35 H211        18.8000    34.4080    20.0980 h1         1 N2U       0.050700
     36 H222        19.1770    34.4480    22.5710 hc         1 N2U       0.048033
     37 H223        19.4320    32.6960    22.5710 hc         1 N2U       0.048033
     38 H221        20.5840    33.7630    21.7430 hc         1 N2U       0.048033
     39 H241        17.8420    31.0600    16.4400 h1         1 N2U       0.103700
     40 H283        22.5870    33.2680    15.3330 hc         1 N2U       0.050700
     41 H281        21.3570    33.5790    14.0980 hc         1 N2U       0.050700
     42 H282        22.2750    34.9220    14.7940 hc         1 N2U       0.050700
     43 H141        22.7680    25.3290    15.5840 h1         1 N2U       0.053367
     44 H142        21.1020    24.9300    16.0990 h1         1 N2U       0.053367
     45 H143        21.4050    25.5170    14.4420 h1         1 N2U       0.053367
     46 H161        21.2860    28.4510    18.4530 hc         1 N2U       0.075700
     47 H162        19.6330    27.9130    18.2760 hc         1 N2U       0.075700
     48 H292        18.8760    35.1180    16.4680 hc         1 N2U       0.050700
     49 H293        19.9940    36.0350    15.4470 hc         1 N2U       0.050700
     50 H291        19.1350    34.6410    14.7770 hc         1 N2U       0.050700
     51 H302        20.6990    34.7850    18.1770 hc         1 N2U       0.050700
     52 H303        22.2340    34.0330    17.7010 hc         1 N2U       0.050700
     53 H301        21.8540    35.6810    17.1740 hc         1 N2U       0.050700
     54 H013        21.3910    30.0750    12.7970 h1         1 N2U       0.058367
     55 H011        21.7330    28.4100    13.3080 h1         1 N2U       0.058367
     56 H012        20.2420    29.2380    13.8380 h1         1 N2U       0.058367
     57 H041        23.5780    30.8540    12.6320 ha         1 N2U       0.115000
     58 H051        25.6160    32.1770    13.0800 ha         1 N2U       0.109000
     59 H061        26.3310    32.6700    15.3880 ha         1 N2U       0.109000
     60 H071        25.0290    31.8390    17.3230 ha         1 N2U       0.112000
     61 H091        22.5610    30.2820    18.0020 ha         1 N2U       0.203000
     62 H321        18.3990    28.9600    16.1000 hn         1 N2U       0.453000
@<TRIPOS>BOND
     1     1     7 1   
     2     1    24 2   
     3     1    25 1   
     4     2    10 1   
     5     2    11 2   
     6     2    33 1   
     7     3     4 1   
     8     3    29 1   
     9     3    34 1   
    10     3    35 1   
    11     4    36 1   
    12     4    37 1   
    13     4    38 1   
    14     5    11 1   
    15     5    13 1   
    16     5    26 1   
    17     5    39 1   
    18     6    14 1   
    19     6    40 1   
    20     6    41 1   
    21     6    42 1   
    22     7     8 1   
    23     7    10 1   
    24     7    26 1   
    25     8    27 1   
    26     8    28 2   
    27     9    27 1   
    28     9    43 1   
    29     9    44 1   
    30     9    45 1   
    31    10    46 1   
    32    10    47 1   
    33    11    12 1   
    34    12    29 1   
    35    12    30 2   
    36    13    31 1   
    37    13    32 2   
    38    14    15 1   
    39    14    16 1   
    40    14    31 1   
    41    15    48 1   
    42    15    49 1   
    43    15    50 1   
    44    16    51 1   
    45    16    52 1   
    46    16    53 1   
    47    17    25 1   
    48    17    54 1   
    49    17    55 1   
    50    17    56 1   
    51    18    19 ar  
    52    18    23 ar  
    53    18    25 1   
    54    19    20 ar  
    55    19    57 1   
    56    20    21 ar  
    57    20    58 1   
    58    21    22 ar  
    59    21    59 1   
    60    22    23 ar  
    61    22    60 1   
    62    23    24 1   
    63    24    61 1   
    64    26    62 1   
@<TRIPOS>SUBSTRUCTURE
     1 N2U         1 TEMP              0 ****  ****    0 ROOT
