@<TRIPOS>MOLECULE
N2U
   62    64     1     0     0
SMALL
No Charge or Current Charge


@<TRIPOS>ATOM
      1 C10         21.6360    29.7300    15.9840 cc         1 N2U      -0.055300
      2 C17         19.9880    30.0360    18.7500 c2         1 N2U      -0.140200
      3 C21         18.6190    33.3750    20.9230 c3         1 N2U       0.168600
      4 C22         19.2270    33.2300    22.3270 c3         1 N2U      -0.097100
      5 C24         18.8980    30.8730    16.6240 c6         1 N2U       0.173700
      6 C28         21.7110    33.9690    14.6890 c3         1 N2U      -0.107100
      7 C11         20.4750    28.8630    16.4900 c6         1 N2U       0.203400
      8 C12         20.6590    27.4070    15.8700 c          1 N2U       0.588100
      9 C14         21.4080    25.1370    16.2510 c3         1 N2U       0.149900
     10 C16         20.4770    28.7750    18.0540 c6         1 N2U      -0.080200
     11 C18         19.2400    30.9820    18.1250 ce         1 N2U      -0.174400
     12 C19         18.6700    32.1820    18.8320 c          1 N2U       0.614300
     13 C25         19.4950    32.0520    15.7570 c          1 N2U       0.622100
     14 C27         20.8180    34.1570    15.9400 c3         1 N2U       0.207000
     15 C29         19.5930    35.0680    15.6660 c3         1 N2U      -0.107100
     16 C30         21.6580    34.7430    17.0970 c3         1 N2U      -0.107100
     17 C01         21.1840    29.8100    13.4170 c3         1 N2U       0.055900
     18 C03         23.1640    30.7630    14.5920 ca         1 N2U      -0.037200
     19 C04         23.8780    31.2550    13.4850 ca         1 N2U      -0.124000
     20 C05         25.0780    31.9590    13.7310 ca         1 N2U      -0.096000
     21 C06         25.5370    32.1540    15.0560 ca         1 N2U      -0.147000
     22 C07         24.8040    31.6440    16.1490 ca         1 N2U      -0.063000
     23 C08         23.6210    30.9520    15.8650 ca         1 N2U      -0.104800
     24 C09         22.6650    30.3100    16.7250 cd         1 N2U      -0.209200
     25 N02         21.9640    30.0630    14.6420 na         1 N2U      -0.069700
     26 N32         19.1560    29.4790    16.0930 n7         1 N2U      -0.853400
     27 O13         21.1900    26.4750    16.7360 os         1 N2U      -0.426100
     28 O15         20.3810    27.1340    14.7060 o          1 N2U      -0.482000
     29 O20         19.0790    32.2620    20.1390 os         1 N2U      -0.450100
     30 O23         17.9180    32.9920    18.3060 o          1 N2U      -0.495000
     31 O26         20.3620    32.8810    16.4480 os         1 N2U      -0.465100
     32 O31         19.1630    32.2190    14.5880 o          1 N2U      -0.483000
     33 H171        20.2290    30.1100    19.8130 ha         1 N2U       0.198000
     34 H212        17.5230    33.3780    20.9960 h1         1 N2U       0.050700
     35 H211        18.9430    34.3260    20.4800 h1         1 N2U       0.050700
     36 H222        18.9050    34.0600    22.9670 hc         1 N2U       0.048033
     37 H223        18.9050    32.2910    22.7930 hc         1 N2U       0.048033
     38 H221        20.3220    33.2390    22.2760 hc         1 N2U       0.048033
     39 H241        17.8160    31.0540    16.5320 h1         1 N2U       0.103700
     40 H283        22.5950    33.3750    14.9360 hc         1 N2U       0.050700
     41 H281        21.1850    33.4860    13.8600 hc         1 N2U       0.050700
     42 H282        22.0650    34.9420    14.3290 hc         1 N2U       0.050700
     43 H141        21.8310    24.5080    17.0450 h1         1 N2U       0.053367
     44 H142        20.4650    24.6810    15.9230 h1         1 N2U       0.053367
     45 H143        22.1080    25.1350    15.4060 h1         1 N2U       0.053367
     46 H161        21.4690    28.4910    18.4310 hc         1 N2U       0.075700
     47 H162        19.8090    27.9590    18.3640 hc         1 N2U       0.075700
     48 H292        18.8970    35.0530    16.5130 hc         1 N2U       0.050700
     49 H293        19.9150    36.1050    15.5130 hc         1 N2U       0.050700
     50 H291        19.0500    34.7630    14.7650 hc         1 N2U       0.050700
     51 H302        21.0470    34.8640    18.0000 hc         1 N2U       0.050700
     52 H303        22.4990    34.0830    17.3400 hc         1 N2U       0.050700
     53 H301        22.0630    35.7260    16.8270 hc         1 N2U       0.050700
     54 H013        21.1760    30.7110    12.7920 h1         1 N2U       0.058367
     55 H011        21.6380    28.9830    12.8580 h1         1 N2U       0.058367
     56 H012        20.1490    29.5540    13.6660 h1         1 N2U       0.058367
     57 H041        23.5230    31.1060    12.4690 ha         1 N2U       0.115000
     58 H051        25.6510    32.3550    12.8960 ha         1 N2U       0.109000
     59 H061        26.4620    32.6990    15.2340 ha         1 N2U       0.109000
     60 H071        25.1460    31.7820    17.1720 ha         1 N2U       0.112000
     61 H091        22.7570    30.2690    17.8060 ha         1 N2U       0.203000
     62 H321        18.4140    28.8640    16.4500 hn         1 N2U       0.453000
@<TRIPOS>BOND
     1     1     7 1   
     2     1    24 2   
     3     1    25 1   
     4     2    10 1   
     5     2    11 2   
     6     2    33 1   
     7     3     4 1   
     8     3    29 1   
     9     3    34 1   
    10     3    35 1   
    11     4    36 1   
    12     4    37 1   
    13     4    38 1   
    14     5    11 1   
    15     5    13 1   
    16     5    26 1   
    17     5    39 1   
    18     6    14 1   
    19     6    40 1   
    20     6    41 1   
    21     6    42 1   
    22     7     8 1   
    23     7    10 1   
    24     7    26 1   
    25     8    27 1   
    26     8    28 2   
    27     9    27 1   
    28     9    43 1   
    29     9    44 1   
    30     9    45 1   
    31    10    46 1   
    32    10    47 1   
    33    11    12 1   
    34    12    29 1   
    35    12    30 2   
    36    13    31 1   
    37    13    32 2   
    38    14    15 1   
    39    14    16 1   
    40    14    31 1   
    41    15    48 1   
    42    15    49 1   
    43    15    50 1   
    44    16    51 1   
    45    16    52 1   
    46    16    53 1   
    47    17    25 1   
    48    17    54 1   
    49    17    55 1   
    50    17    56 1   
    51    18    19 ar  
    52    18    23 ar  
    53    18    25 1   
    54    19    20 ar  
    55    19    57 1   
    56    20    21 ar  
    57    20    58 1   
    58    21    22 ar  
    59    21    59 1   
    60    22    23 ar  
    61    22    60 1   
    62    23    24 1   
    63    24    61 1   
    64    26    62 1   
@<TRIPOS>SUBSTRUCTURE
     1 N2U         1 TEMP              0 ****  ****    0 ROOT
