@<TRIPOS>MOLECULE
N2V
  107   114     1     0     0
SMALL
bcc


@<TRIPOS>ATOM
      1 C26         -5.1990     0.4710    -1.5740 ca         1 N2V      -0.120300
      2 C25         -3.7610     0.7650    -1.8800 c6         1 N2V       0.166400
      3 C24         -3.5690     2.2290    -2.2430 c6         1 N2V       0.101400
      4 C21         -1.7400     1.0040    -0.7010 ca         1 N2V       0.045100
      5 C20         -0.8350     0.5410     0.2390 ca         1 N2V      -0.131000
      6 C10          4.0290    -0.5030     2.3540 ca         1 N2V      -0.110300
      7 C12          3.9170    -2.9250     2.3870 ca         1 N2V      -0.137000
      8 C13          5.1730    -3.0090     1.8000 ca         1 N2V      -0.136000
      9 C16          2.7640     0.9640     3.9970 c3         1 N2V      -0.058400
     10 C15          5.2890    -0.6070     1.7680 ca         1 N2V      -0.120500
     11 C02          6.2160     4.6040    -0.8730 c          1 N2V       0.933600
     12 C04          6.5890     3.1480    -0.4860 c3         1 N2V      -0.029300
     13 C07          3.1810     1.7590     0.3170 c6         1 N2V       0.108500
     14 C09          3.4360     0.8710     2.6240 c3         1 N2V       0.229800
     15 C11          3.3550    -1.6860     2.6630 ca         1 N2V      -0.120500
     16 C14          5.8590    -1.8420     1.4930 ca         1 N2V      -0.137000
     17 C18          1.4170     0.5060     1.3220 c6         1 N2V       0.221100
     18 C19          0.4500     1.0670     0.3180 ca         1 N2V      -0.074300
     19 C22         -1.3520     2.0140    -1.5860 ca         1 N2V       0.043100
     20 C27         -5.9960    -0.1950    -2.5020 ca         1 N2V      -0.069000
     21 C28         -7.3380    -0.4240    -2.2590 ca         1 N2V      -0.194500
     22 C29         -7.9160     0.0090    -1.0650 ca         1 N2V       0.141100
     23 C32        -11.3010    -0.2520     0.1920 ca         1 N2V      -0.081300
     24 C33        -11.7140    -1.4880     0.6710 ca         1 N2V      -0.090000
     25 C34        -13.0370    -1.8830     0.5500 ca         1 N2V       0.020400
     26 C36        -13.9610    -1.0410    -0.0600 ca         1 N2V       0.033400
     27 C38        -13.5540     0.1940    -0.5440 ca         1 N2V      -0.120000
     28 C39        -12.2310     0.5820    -0.4190 ca         1 N2V      -0.094000
     29 C40         -7.1290     0.6730    -0.1270 ca         1 N2V      -0.194500
     30 C41         -5.7840     0.9000    -0.3900 ca         1 N2V      -0.069000
     31 C43         -0.0680     2.5280    -1.5140 ca         1 N2V      -0.121000
     32 C44          0.8420     2.0600    -0.5720 ca         1 N2V      -0.046300
     33 C45          2.2160     2.6500    -0.4750 c6         1 N2V      -0.033100
     34 C47          7.5060     2.5850    -1.5770 c3         1 N2V      -0.050100
     35 C48          7.9050     1.1510    -1.3670 ca         1 N2V      -0.041300
     36 C49          7.4610     0.1550    -2.2310 ca         1 N2V      -0.137500
     37 C50          7.8240    -1.1720    -2.0450 ca         1 N2V      -0.115000
     38 C51          8.6530    -1.5410    -0.9910 cp         1 N2V      -0.082000
     39 C52          8.9920    -2.9640    -0.7720 cp         1 N2V       0.021000
     40 C53         10.3000    -3.4250    -0.5920 ca         1 N2V      -0.178600
     41 C54         11.5000    -2.5290    -0.6870 c3         1 N2V      -0.044800
     42 C55         10.4830    -4.7950    -0.3380 ca         1 N2V       0.410600
     43 C56         11.8580    -5.3450    -0.1030 c3         1 N2V      -0.142400
     44 C58          8.2450    -5.2210    -0.4900 ca         1 N2V       0.394200
     45 C59          7.9530    -3.8960    -0.7320 ca         1 N2V      -0.246300
     46 C60          9.0960    -0.5440    -0.1180 ca         1 N2V      -0.115000
     47 C61          8.7240     0.7770    -0.3020 ca         1 N2V      -0.137500
     48 N08          2.5520     1.3720     1.5660 n3         1 N2V      -0.707600
     49 N57          9.4800    -5.6640    -0.2860 nb         1 N2V      -0.683000
     50 O23         -2.2080     2.5030    -2.5180 os         1 N2V      -0.305900
     51 O30         -9.2270    -0.2590    -0.9070 os         1 N2V      -0.320900
     52 O42         -2.9810     0.4560    -0.7310 os         1 N2V      -0.315900
     53 CL35       -13.5180    -3.4200     1.1580 cl         1 N2V      -0.080400
     54 CL37       -15.6090    -1.5120    -0.2120 cl         1 N2V      -0.082400
     55 H1          -3.4270     0.1470    -2.7230 h1         1 N2V       0.063700
     56 H2          -4.1330     2.4710    -3.1420 h1         1 N2V       0.062700
     57 H3          -3.9310     2.8680    -1.4280 h1         1 N2V       0.062700
     58 H4          -1.1460    -0.2410     0.9220 ha         1 N2V       0.136000
     59 H5           3.3750    -3.8280     2.6370 ha         1 N2V       0.128500
     60 H6           5.6140    -3.9750     1.5890 ha         1 N2V       0.122000
     61 H10          3.5190     0.6890     4.7380 hc         1 N2V       0.027200
     62 H11          1.9620     0.2310     4.1130 hc         1 N2V       0.027200
     63 H12          5.8460     0.2930     1.5300 ha         1 N2V       0.137000
     64 H13          7.1400     3.1630     0.4590 h1         1 N2V       0.051700
     65 H14          3.4340     0.8790    -0.3000 h1         1 N2V       0.022700
     66 H15          4.2740     1.5660     2.6750 h1         1 N2V       0.092700
     67 H16          2.3810    -1.6510     3.1360 ha         1 N2V       0.137000
     68 H17          6.8410    -1.8860     1.0420 ha         1 N2V       0.128500
     69 H18          0.8880     0.3410     2.2630 h1         1 N2V       0.037200
     70 H19          1.7280    -0.4910     0.9690 h1         1 N2V       0.037200
     71 H20         -5.5630    -0.5450    -3.4320 ha         1 N2V       0.140500
     72 H21         -7.9440    -0.9460    -2.9890 ha         1 N2V       0.139000
     73 H24        -11.0050    -2.1500     1.1510 ha         1 N2V       0.154000
     74 H25        -14.2740     0.8480    -1.0150 ha         1 N2V       0.151000
     75 H26        -11.9270     1.5500    -0.7980 ha         1 N2V       0.144000
     76 H27         -7.5390     1.0250     0.8100 ha         1 N2V       0.139000
     77 H28         -5.1950     1.4190     0.3560 ha         1 N2V       0.140500
     78 H29          0.2190     3.3110    -2.2080 ha         1 N2V       0.153000
     79 H30          2.1560     3.6210     0.0230 hc         1 N2V       0.089200
     80 H31          2.6300     2.8360    -1.4690 hc         1 N2V       0.089200
     81 H32          7.0080     2.6820    -2.5460 hc         1 N2V       0.066200
     82 H33          8.3950     3.2170    -1.6130 hc         1 N2V       0.066200
     83 H34          6.8300     0.4190    -3.0720 ha         1 N2V       0.138500
     84 H35          7.4670    -1.9230    -2.7390 ha         1 N2V       0.125000
     85 H36         11.9170    -2.3070     0.2990 hc         1 N2V       0.045033
     86 H37         12.2940    -3.0000    -1.2660 hc         1 N2V       0.045033
     87 H38         11.2670    -1.5810    -1.1650 hc         1 N2V       0.045033
     88 H39         12.3670    -4.8200     0.7070 hc         1 N2V       0.046033
     89 H40         11.8030    -6.4010     0.1510 hc         1 N2V       0.046033
     90 H41         12.4910    -5.2410    -0.9880 hc         1 N2V       0.046033
     91 H42          7.4500    -5.9580    -0.4490 h4         1 N2V       0.013100
     92 H43          6.9260    -3.5820    -0.8690 ha         1 N2V       0.148000
     93 H44          9.7230    -0.8040     0.7250 ha         1 N2V       0.125000
     94 H45          9.0820     1.5280     0.3920 ha         1 N2V       0.138500
     95 C06          4.4410     2.6000     0.5040 c          1 N2V       0.662100
     96 N05          5.4300     2.3010    -0.3440 ns         1 N2V      -0.539900
     97 O46          4.5150     3.5070     1.3220 o          1 N2V      -0.588100
     98 C31         -9.8630     0.1540     0.2940 c3         1 N2V       0.187700
     99 O01          7.0540     5.4670    -0.5460 o          1 N2V      -0.821300
    100 H7           1.4060     2.6210     3.6420 hc         1 N2V       0.038033
    101 H8           1.8720     2.4150     5.3300 hc         1 N2V       0.038033
    102 H9           3.0080     3.1100     4.1720 hc         1 N2V       0.038033
    103 H22         -9.7830     1.2380     0.4180 h1         1 N2V       0.045700
    104 H23         -9.3900    -0.3180     1.1620 h1         1 N2V       0.045700
    105 H46          5.2860     1.5520    -1.0030 hn         1 N2V       0.294500
    106 C17          2.2310     2.3550     4.3010 c3         1 N2V      -0.083100
    107 O03          5.1660     4.7690    -1.5150 o          1 N2V      -0.821300
@<TRIPOS>BOND
     1     1     2 1   
     2     1    20 ar  
     3     1    30 ar  
     4     2     3 1   
     5     2    52 1   
     6     2    55 1   
     7     3    50 1   
     8     3    56 1   
     9     3    57 1   
    10     4     5 ar  
    11     4    19 ar  
    12     4    52 1   
    13     5    18 ar  
    14     5    58 1   
    15     6    10 ar  
    16     6    14 1   
    17     6    15 ar  
    18     7     8 ar  
    19     7    15 ar  
    20     7    59 1   
    21     8    16 ar  
    22     8    60 1   
    23     9    14 1   
    24     9    61 1   
    25     9    62 1   
    26     9   106 1   
    27    10    16 ar  
    28    10    63 1   
    29    11    12 1   
    30    11    99 1   
    31    11   107 1   
    32    12    34 1   
    33    12    64 1   
    34    12    96 1   
    35    13    33 1   
    36    13    48 1   
    37    13    65 1   
    38    13    95 1   
    39    14    48 1   
    40    14    66 1   
    41    15    67 1   
    42    16    68 1   
    43    17    18 1   
    44    17    48 1   
    45    17    69 1   
    46    17    70 1   
    47    18    32 ar  
    48    19    31 ar  
    49    19    50 1   
    50    20    21 ar  
    51    20    71 1   
    52    21    22 ar  
    53    21    72 1   
    54    22    29 ar  
    55    22    51 1   
    56    23    24 ar  
    57    23    28 ar  
    58    23    98 1   
    59    24    25 ar  
    60    24    73 1   
    61    25    26 ar  
    62    25    53 1   
    63    26    27 ar  
    64    26    54 1   
    65    27    28 ar  
    66    27    74 1   
    67    28    75 1   
    68    29    30 ar  
    69    29    76 1   
    70    30    77 1   
    71    31    32 ar  
    72    31    78 1   
    73    32    33 1   
    74    33    79 1   
    75    33    80 1   
    76    34    35 1   
    77    34    81 1   
    78    34    82 1   
    79    35    36 ar  
    80    35    47 ar  
    81    36    37 ar  
    82    36    83 1   
    83    37    38 ar  
    84    37    84 1   
    85    38    39 1   
    86    38    46 ar  
    87    39    40 ar  
    88    39    45 ar  
    89    40    41 1   
    90    40    42 ar  
    91    41    85 1   
    92    41    86 1   
    93    41    87 1   
    94    42    43 1   
    95    42    49 ar  
    96    43    88 1   
    97    43    89 1   
    98    43    90 1   
    99    44    45 ar  
   100    44    49 ar  
   101    44    91 1   
   102    45    92 1   
   103    46    47 ar  
   104    46    93 1   
   105    47    94 1   
   106    51    98 1   
   107    95    96 1   
   108    95    97 2   
   109    96   105 1   
   110    98   103 1   
   111    98   104 1   
   112   100   106 1   
   113   101   106 1   
   114   102   106 1   
@<TRIPOS>SUBSTRUCTURE
     1 N2V         1 TEMP              0 ****  ****    0 ROOT
