@<TRIPOS>MOLECULE
N2V
  107   114     1     0     0
SMALL
No Charge or Current Charge


@<TRIPOS>ATOM
      1 C26         -4.1310    -0.0320    -1.7130 ca         1 N2V      -0.120300
      2 C25         -2.6540     0.3170    -1.9240 c6         1 N2V       0.189600
      3 C24         -2.4430     1.7180    -2.5460 c6         1 N2V       0.124600
      4 C21         -0.7070     0.7950    -0.5750 ca         1 N2V       0.045100
      5 C20          0.1120     0.4890     0.5220 ca         1 N2V      -0.113000
      6 C10          4.7310    -0.4290     3.1150 ca         1 N2V      -0.110300
      7 C12          4.3290    -2.8230     3.4830 ca         1 N2V      -0.119000
      8 C13          5.5810    -3.1310     2.9320 ca         1 N2V      -0.118000
      9 C16          3.5820     1.3540     4.5720 c3         1 N2V      -0.058400
     10 C15          5.9900    -0.7600     2.5660 ca         1 N2V      -0.102500
     11 C02          7.0430     5.7340    -0.8480 c          1 N2V       0.723000
     12 C04          7.1160     4.2040    -0.5480 c3         1 N2V      -0.029300
     13 C07          4.2540     1.8200     0.7480 c6         1 N2V       0.108500
     14 C09          4.2880     1.0540     3.2170 c3         1 N2V       0.229800
     15 C11          3.9080    -1.4850     3.5790 ca         1 N2V      -0.102500
     16 C14          6.4120    -2.0980     2.4760 ca         1 N2V      -0.119000
     17 C18          2.3090     0.6440     1.7790 c6         1 N2V       0.221100
     18 C19          1.4130     1.0250     0.6080 ca         1 N2V      -0.074300
     19 C22         -0.2290     1.6600    -1.5900 ca         1 N2V       0.043100
     20 C27         -4.7190    -1.0870    -2.4390 ca         1 N2V      -0.051000
     21 C28         -6.0750    -1.4050    -2.2510 ca         1 N2V      -0.176500
     22 C29         -6.8580    -0.6790    -1.3400 ca         1 N2V       0.141100
     23 C32        -10.4410    -1.0110    -0.3880 ca         1 N2V      -0.081300
     24 C33        -10.7190    -2.1850     0.3410 ca         1 N2V      -0.072000
     25 C34        -11.9840    -2.7930     0.2550 ca         1 N2V       0.112000
     26 C36        -12.9820    -2.2270    -0.5650 ca         1 N2V       0.125000
     27 C38        -12.7070    -1.0570    -1.2940 ca         1 N2V      -0.102000
     28 C39        -11.4410    -0.4510    -1.2070 ca         1 N2V      -0.076000
     29 C40         -6.2730     0.3780    -0.6090 ca         1 N2V      -0.176500
     30 C41         -4.9160     0.6970    -0.7960 ca         1 N2V      -0.051000
     31 C43          1.0720     2.1800    -1.5090 ca         1 N2V      -0.103000
     32 C44          1.8970     1.8580    -0.4130 ca         1 N2V      -0.046300
     33 C45          3.2910     2.4630    -0.3120 c6         1 N2V      -0.033100
     34 C47          7.6720     3.4070    -1.7660 c3         1 N2V      -0.050100
     35 C48          7.3810     1.9100    -1.6750 ca         1 N2V      -0.041300
     36 C49          6.2790     1.3640    -2.3600 ca         1 N2V      -0.119500
     37 C50          5.9070     0.0260    -2.1530 ca         1 N2V      -0.097000
     38 C51          6.6360    -0.8040    -1.2690 cp         1 N2V      -0.082000
     39 C52          6.1700    -2.1930    -0.9800 cp         1 N2V       0.021000
     40 C53          7.0040    -3.3430    -1.0710 ca         1 N2V      -0.113300
     41 C54          8.4560    -3.2420    -1.5500 c3         1 N2V      -0.044800
     42 C55          6.4550    -4.6060    -0.7200 ca         1 N2V       0.345300
     43 C56          7.2770    -5.8880    -0.7590 c3         1 N2V      -0.142400
     44 C58          4.3820    -3.6820    -0.2540 ca         1 N2V       0.328900
     45 C59          4.8340    -2.3970    -0.5690 ca         1 N2V      -0.163000
     46 C60          7.7650    -0.2520    -0.6170 ca         1 N2V      -0.097000
     47 C61          8.1370     1.0870    -0.8210 ca         1 N2V      -0.119500
     48 N08          3.4860     1.5360     2.0350 n3         1 N2V      -0.707600
     49 N57          5.1710    -4.7720    -0.3270 nb         1 N2V      -0.683000
     50 O23         -1.0310     2.0010    -2.6610 os         1 N2V      -0.329100
     51 O30         -8.1820    -1.0380    -1.2000 os         1 N2V      -0.344100
     52 O42         -1.9700     0.2440    -0.6530 os         1 N2V      -0.339100
     53 Cl35       -12.2920    -4.2620     1.1830 cl         1 N2V      -0.172000
     54 Cl37       -14.5800    -2.9620    -0.6960 cl         1 N2V      -0.174000
     55 H1          -2.1980    -0.4260    -2.5940 h1         1 N2V       0.063700
     56 H2          -2.9060     1.7730    -3.5410 h1         1 N2V       0.062700
     57 H3          -2.9070     2.4820    -1.9070 h1         1 N2V       0.062700
     58 H4          -0.2590    -0.1750     1.3000 ha         1 N2V       0.118000
     59 H5           3.6810    -3.6220     3.8360 ha         1 N2V       0.110500
     60 H6           5.9060    -4.1660     2.8560 ha         1 N2V       0.104000
     61 H10          4.2000     0.9520     5.3840 hc         1 N2V       0.027200
     62 H11          2.6140     0.8470     4.6390 hc         1 N2V       0.027200
     63 H12          6.6560     0.0170     2.2100 ha         1 N2V       0.119000
     64 H13          7.8190     4.0780     0.2840 h1         1 N2V       0.051700
     65 H14          4.5610     0.8490     0.3320 h1         1 N2V       0.022700
     66 H15          5.2080     1.6390     3.3010 h1         1 N2V       0.092700
     67 H16          2.9300    -1.2810     4.0060 ha         1 N2V       0.119000
     68 H17          7.3840    -2.3330     2.0480 ha         1 N2V       0.110500
     69 H18          1.6760     0.5840     2.6750 h1         1 N2V       0.037200
     70 H19          2.6540    -0.3780     1.5670 h1         1 N2V       0.037200
     71 H20         -4.1270    -1.6600    -3.1500 ha         1 N2V       0.122500
     72 H21         -6.5220    -2.2190    -2.8150 ha         1 N2V       0.121000
     73 H24         -9.9530    -2.6290     0.9720 ha         1 N2V       0.136000
     74 H25        -13.4760    -0.6210    -1.9270 ha         1 N2V       0.133000
     75 H26        -11.2370     0.4520    -1.7780 ha         1 N2V       0.126000
     76 H27         -6.8480     0.9590     0.1050 ha         1 N2V       0.121000
     77 H28         -4.4730     1.5100    -0.2240 ha         1 N2V       0.122500
     78 H29          1.4330     2.8420    -2.2920 ha         1 N2V       0.135000
     79 H30          3.1550     3.5260    -0.0720 hc         1 N2V       0.089200
     80 H31          3.7590     2.4190    -1.3050 hc         1 N2V       0.089200
     81 H32          7.2290     3.8080    -2.6860 hc         1 N2V       0.066200
     82 H33          8.7510     3.5860    -1.8500 hc         1 N2V       0.066200
     83 H34          5.6810     1.9890    -3.0200 ha         1 N2V       0.120500
     84 H35          5.0320    -0.3690    -2.6640 ha         1 N2V       0.107000
     85 H36          9.1470    -3.1840    -0.7010 hc         1 N2V       0.045033
     86 H37          8.7480    -4.1040    -2.1610 hc         1 N2V       0.045033
     87 H38          8.6220    -2.3590    -2.1780 hc         1 N2V       0.045033
     88 H39          8.2260    -5.7640    -0.2250 hc         1 N2V       0.046033
     89 H40          6.7500    -6.7290    -0.2910 hc         1 N2V       0.046033
     90 H41          7.5020    -6.1760    -1.7920 hc         1 N2V       0.046033
     91 H42          3.3550    -3.8450     0.0730 h4         1 N2V       0.013100
     92 H43          4.1550    -1.5560    -0.4720 ha         1 N2V       0.130000
     93 H44          8.3330    -0.8580     0.0840 ha         1 N2V       0.107000
     94 H45          8.9800     1.5010    -0.2720 ha         1 N2V       0.120500
     95 C06          5.6220     2.6480     0.8060 c          1 N2V       0.595100
     96 N05          5.7940     3.6750    -0.1160 ns         1 N2V      -0.472900
     97 O46          6.5330     2.3870     1.5810 o          1 N2V      -0.588100
     98 C31         -9.0680    -0.3600    -0.2930 c3         1 N2V       0.210900
     99 O01          7.8580     6.4680    -0.3060 o          1 N2V      -0.716000
    100 H7           2.6940     3.2940     4.0830 hc         1 N2V       0.038033
    101 H8           2.9100     3.0120     5.8220 hc         1 N2V       0.038033
    102 H9           4.3150     3.4010     4.8080 hc         1 N2V       0.038033
    103 H22         -9.1460     0.7040    -0.5520 h1         1 N2V       0.045700
    104 H23         -8.6990    -0.4360     0.7380 h1         1 N2V       0.045700
    105 H46          4.9980     3.9110    -0.6950 hn         1 N2V       0.294500
    106 C17          3.3630     2.8590     4.8350 c3         1 N2V      -0.083100
    107 O03          6.1270     6.1480    -1.5470 o          1 N2V      -0.716000
@<TRIPOS>BOND
     1     1     2 1   
     2     1    20 ar  
     3     1    30 ar  
     4     2     3 1   
     5     2    52 1   
     6     2    55 1   
     7     3    50 1   
     8     3    56 1   
     9     3    57 1   
    10     4     5 ar  
    11     4    19 ar  
    12     4    52 1   
    13     5    18 ar  
    14     5    58 1   
    15     6    10 ar  
    16     6    14 1   
    17     6    15 ar  
    18     7     8 ar  
    19     7    15 ar  
    20     7    59 1   
    21     8    16 ar  
    22     8    60 1   
    23     9    14 1   
    24     9    61 1   
    25     9    62 1   
    26     9   106 1   
    27    10    16 ar  
    28    10    63 1   
    29    11    12 1   
    30    11    99 1   
    31    11   107 1   
    32    12    34 1   
    33    12    64 1   
    34    12    96 1   
    35    13    33 1   
    36    13    48 1   
    37    13    65 1   
    38    13    95 1   
    39    14    48 1   
    40    14    66 1   
    41    15    67 1   
    42    16    68 1   
    43    17    18 1   
    44    17    48 1   
    45    17    69 1   
    46    17    70 1   
    47    18    32 ar  
    48    19    31 ar  
    49    19    50 1   
    50    20    21 ar  
    51    20    71 1   
    52    21    22 ar  
    53    21    72 1   
    54    22    29 ar  
    55    22    51 1   
    56    23    24 ar  
    57    23    28 ar  
    58    23    98 1   
    59    24    25 ar  
    60    24    73 1   
    61    25    26 ar  
    62    25    53 1   
    63    26    27 ar  
    64    26    54 1   
    65    27    28 ar  
    66    27    74 1   
    67    28    75 1   
    68    29    30 ar  
    69    29    76 1   
    70    30    77 1   
    71    31    32 ar  
    72    31    78 1   
    73    32    33 1   
    74    33    79 1   
    75    33    80 1   
    76    34    35 1   
    77    34    81 1   
    78    34    82 1   
    79    35    36 ar  
    80    35    47 ar  
    81    36    37 ar  
    82    36    83 1   
    83    37    38 ar  
    84    37    84 1   
    85    38    39 1   
    86    38    46 ar  
    87    39    40 ar  
    88    39    45 ar  
    89    40    41 1   
    90    40    42 ar  
    91    41    85 1   
    92    41    86 1   
    93    41    87 1   
    94    42    43 1   
    95    42    49 ar  
    96    43    88 1   
    97    43    89 1   
    98    43    90 1   
    99    44    45 ar  
   100    44    49 ar  
   101    44    91 1   
   102    45    92 1   
   103    46    47 ar  
   104    46    93 1   
   105    47    94 1   
   106    51    98 1   
   107    95    96 1   
   108    95    97 2   
   109    96   105 1   
   110    98   103 1   
   111    98   104 1   
   112   100   106 1   
   113   101   106 1   
   114   102   106 1   
@<TRIPOS>SUBSTRUCTURE
     1 N2V         1 TEMP              0 ****  ****    0 ROOT
