@<TRIPOS>MOLECULE
N2X
   38    40     1     0     0
SMALL
abcg2


@<TRIPOS>ATOM
      1 C4           8.2190    -2.0940    23.1780 c3         1 N2X       0.163300
      2 C5           7.8660    -3.7400    21.3370 c          1 N2X       0.531000
      3 C6           7.3570    -3.6920    19.8780 c5         1 N2X       0.147600
      4 C7           6.9310    -2.2610    19.7300 ca         1 N2X      -0.144300
      5 C8           7.2480    -1.5800    20.9080 ca         1 N2X      -0.011000
      6 C10          6.4240     0.4510    19.9790 ca         1 N2X      -0.046000
      7 C13         10.3450    -1.1880    22.1110 ca         1 N2X      -0.063000
      8 C15         11.8520     0.2090    23.3520 ca         1 N2X      -0.070000
      9 C11          6.1050    -0.2340    18.8150 ca         1 N2X      -0.047900
     10 C12          6.3550    -1.5990    18.6660 ca         1 N2X      -0.013000
     11 O2           6.2950    -4.5990    19.6440 oh         1 N2X      -0.628000
     12 O1           8.2440    -4.7350    21.9280 o          1 N2X      -0.517000
     13 C9           7.0110    -0.2250    21.0510 ca         1 N2X      -0.138000
     14 N            7.8060    -2.4690    21.8420 n          1 N2X      -0.217400
     15 C3           9.5040    -1.2980    23.2080 ca         1 N2X      -0.141300
     16 C14         11.5190    -0.4400    22.1720 ca         1 N2X      -0.144000
     17 C16         11.0270     0.1100    24.4710 ca         1 N2X      -0.193000
     18 C2           9.8570    -0.6440    24.4010 ca         1 N2X       0.147100
     19 O            8.9940    -0.8120    25.4380 os         1 N2X      -0.366100
     20 C1           9.2580    -0.1420    26.6800 c3         1 N2X       0.165600
     21 C            8.1390    -0.4890    27.6340 c3         1 N2X      -0.095100
     22 H1           7.4150    -1.5220    23.6440 h1         1 N2X       0.079200
     23 H2           8.3250    -3.0170    23.7500 h1         1 N2X       0.079200
     24 H3           8.2110    -3.9120    19.2250 h1         1 N2X       0.070700
     25 H4           6.2230     1.5100    20.0590 ha         1 N2X       0.132000
     26 H5          10.0810    -1.6890    21.1880 ha         1 N2X       0.117000
     27 H6          12.7580     0.7990    23.4150 ha         1 N2X       0.114000
     28 H7           6.1050    -2.1170    17.7510 ha         1 N2X       0.141000
     29 H8           6.6500    -5.4970    19.6910 ho         1 N2X       0.461000
     30 H9           7.2670     0.3070    21.9560 ha         1 N2X       0.136000
     31 H10         12.1600    -0.3640    21.3030 ha         1 N2X       0.118000
     32 H11         11.3010     0.6190    25.3830 ha         1 N2X       0.118000
     33 H12         10.2250    -0.4720    27.0690 h1         1 N2X       0.036200
     34 H13          9.3070     0.9360    26.5030 h1         1 N2X       0.036200
     35 H14          8.3100     0.0060    28.5920 hc         1 N2X       0.049033
     36 H15          7.1770    -0.1570    27.2410 hc         1 N2X       0.049033
     37 H16          8.0950    -1.5660    27.8050 hc         1 N2X       0.049033
     38 BR           5.3060     0.7240    17.3600 br         1 N2X      -0.105100
@<TRIPOS>BOND
     1     1    14 1   
     2     1    15 1   
     3     1    22 1   
     4     1    23 1   
     5     2     3 1   
     6     2    12 2   
     7     2    14 1   
     8     3     4 1   
     9     3    11 1   
    10     3    24 1   
    11     4     5 ar  
    12     4    10 ar  
    13     5    13 ar  
    14     5    14 1   
    15     6     9 ar  
    16     6    13 ar  
    17     6    25 1   
    18     7    15 ar  
    19     7    16 ar  
    20     7    26 1   
    21     8    16 ar  
    22     8    17 ar  
    23     8    27 1   
    24     9    10 ar  
    25     9    38 1   
    26    10    28 1   
    27    11    29 1   
    28    13    30 1   
    29    15    18 ar  
    30    16    31 1   
    31    17    18 ar  
    32    17    32 1   
    33    18    19 1   
    34    19    20 1   
    35    20    21 1   
    36    20    33 1   
    37    20    34 1   
    38    21    35 1   
    39    21    36 1   
    40    21    37 1   
@<TRIPOS>SUBSTRUCTURE
     1 N2X         1 TEMP              0 ****  ****    0 ROOT
