@<TRIPOS>MOLECULE
N2X
   38    40     1     0     0
SMALL
No Charge or Current Charge


@<TRIPOS>ATOM
      1 C4           8.7860    -2.7550    23.0690 c3         1 N2X       0.163300
      2 C5           8.3200    -3.7900    20.8060 c          1 N2X       0.531000
      3 C6           7.3950    -3.3900    19.5850 c5         1 N2X       0.147600
      4 C7           6.7800    -2.0830    20.0530 ca         1 N2X      -0.144300
      5 C8           7.2450    -1.7490    21.3100 ca         1 N2X      -0.011000
      6 C10          6.0130     0.3250    21.2530 ca         1 N2X      -0.046000
      7 C13         11.0850    -1.9770    22.3420 ca         1 N2X      -0.063000
      8 C15         12.2100    -0.0880    23.3810 ca         1 N2X      -0.070000
      9 C11          5.5050    -0.0310    19.9830 ca         1 N2X      -0.047900
     10 C12          5.8940    -1.2380    19.3660 ca         1 N2X      -0.013000
     11 O2           6.3850    -4.3840    19.3240 oh         1 N2X      -0.628000
     12 O1           9.0100    -4.7930    20.9630 o          1 N2X      -0.517000
     13 C9           6.9080    -0.5330    21.9240 ca         1 N2X      -0.138000
     14 N            8.1670    -2.7360    21.7290 n          1 N2X      -0.217400
     15 C3           9.9780    -1.8060    23.1990 ca         1 N2X      -0.141300
     16 C14         12.1940    -1.1210    22.4320 ca         1 N2X      -0.144000
     17 C16         11.1160     0.0880    24.2440 ca         1 N2X      -0.193000
     18 C2           9.9950    -0.7690    24.1600 ca         1 N2X       0.147100
     19 O            8.9070    -0.6240    24.9990 os         1 N2X      -0.366100
     20 C1           8.8160     0.4280    25.9740 c3         1 N2X       0.165600
     21 C            7.4600     0.2830    26.6810 c3         1 N2X      -0.095100
     22 H1           8.0100    -2.5130    23.8050 h1         1 N2X       0.079200
     23 H2           9.1220    -3.7740    23.3000 h1         1 N2X       0.079200
     24 H3           8.0350    -3.2240    18.7080 h1         1 N2X       0.070700
     25 H4           5.7210     1.2680    21.7110 ha         1 N2X       0.132000
     26 H5          11.0870    -2.7750    21.6030 ha         1 N2X       0.117000
     27 H6          13.0710     0.5740    23.4490 ha         1 N2X       0.114000
     28 H7           5.5240    -1.5040    18.3780 ha         1 N2X       0.141000
     29 H8           6.8540    -5.2270    19.1320 ho         1 N2X       0.461000
     30 H9           7.3160    -0.2560    22.8920 ha         1 N2X       0.136000
     31 H10         13.0420    -1.2590    21.7650 ha         1 N2X       0.118000
     32 H11         11.1580     0.8940    24.9710 ha         1 N2X       0.118000
     33 H12          9.6250     0.3470    26.7120 h1         1 N2X       0.036200
     34 H13          8.8730     1.4130    25.4920 h1         1 N2X       0.036200
     35 H14          7.3410     1.0670    27.4370 hc         1 N2X       0.049033
     36 H15          6.6380     0.3710    25.9610 hc         1 N2X       0.049033
     37 H16          7.3860    -0.6910    27.1800 hc         1 N2X       0.049033
     38 Br           4.3000     1.1490    19.0810 br         1 N2X      -0.105100
@<TRIPOS>BOND
     1     1    14 1   
     2     1    15 1   
     3     1    22 1   
     4     1    23 1   
     5     2     3 1   
     6     2    12 2   
     7     2    14 1   
     8     3     4 1   
     9     3    11 1   
    10     3    24 1   
    11     4     5 ar  
    12     4    10 ar  
    13     5    13 ar  
    14     5    14 1   
    15     6     9 ar  
    16     6    13 ar  
    17     6    25 1   
    18     7    15 ar  
    19     7    16 ar  
    20     7    26 1   
    21     8    16 ar  
    22     8    17 ar  
    23     8    27 1   
    24     9    10 ar  
    25     9    38 1   
    26    10    28 1   
    27    11    29 1   
    28    13    30 1   
    29    15    18 ar  
    30    16    31 1   
    31    17    18 ar  
    32    17    32 1   
    33    18    19 1   
    34    19    20 1   
    35    20    21 1   
    36    20    33 1   
    37    20    34 1   
    38    21    35 1   
    39    21    36 1   
    40    21    37 1   
@<TRIPOS>SUBSTRUCTURE
     1 N2X         1 TEMP              0 ****  ****    0 ROOT
