@<TRIPOS>MOLECULE
N2Y
   25    26     1     0     0
SMALL
No Charge or Current Charge


@<TRIPOS>ATOM
      1 N2          -3.8920    -1.4360     1.2260 n2         1 N2Y      -0.881100
      2 N3          -2.1550    -0.2510     0.2660 nh         1 N2Y      -0.766600
      3 C1          -3.4490    -0.6160     0.3850 c2         1 N2Y       0.795100
      4 N4          -4.2660     0.0610    -0.4440 nu         1 N2Y      -0.923400
      5 C2          -3.3790     0.7340    -1.4390 c5         1 N2Y       0.183800
      6 C3          -2.0870     0.9430    -0.5970 c5         1 N2Y       0.199800
      7 C4           2.8100     0.7150     0.2220 ca         1 N2Y       0.442000
      8 Cl1          4.4210     1.3110    -0.1480 cl         1 N2Y      -0.173000
      9 N6           2.1530     1.3480     1.2180 nb         1 N2Y      -0.659000
     10 C5           0.9090     0.9100     1.5240 ca         1 N2Y       0.350900
     11 C6           0.2830    -0.1610     0.8580 ca         1 N2Y      -0.148300
     12 C7           0.9780    -0.8140    -0.1770 ca         1 N2Y      -0.048000
     13 C8           2.2680    -0.3620    -0.4980 ca         1 N2Y      -0.154000
     14 H1          -4.9110    -1.4440     1.1240 hn         1 N2Y       0.387400
     15 H3          -3.1720     0.0820    -2.2990 h1         1 N2Y       0.049700
     16 H4          -2.1580     1.8640    -0.0010 h1         1 N2Y       0.052700
     17 H5           0.3990     1.4390     2.3290 h4         1 N2Y       0.024100
     18 H6           0.5270    -1.6430    -0.7180 ha         1 N2Y       0.135000
     19 H7           2.8420    -0.8320    -1.2900 ha         1 N2Y       0.139000
     20 H8          -1.3760    -0.1530     2.2260 h1         1 N2Y       0.068700
     21 H9          -1.1040    -1.6870     1.4010 h1         1 N2Y       0.068700
     22 H2          -5.0500    -0.4890    -0.7810 hn         1 N2Y       0.474000
     23 H10         -3.7850     1.6820    -1.8170 h1         1 N2Y       0.049700
     24 H11         -1.1800     0.9880    -1.2150 h1         1 N2Y       0.052700
     25 C9          -1.1180    -0.5980     1.2540 c3         1 N2Y       0.279100
@<TRIPOS>BOND
     1     1     3 2   
     2     1    14 1   
     3     2     3 1   
     4     2     6 1   
     5     2    25 1   
     6     3     4 1   
     7     4     5 1   
     8     4    22 1   
     9     5     6 1   
    10     5    15 1   
    11     5    23 1   
    12     6    16 1   
    13     6    24 1   
    14     7     8 1   
    15     7     9 ar  
    16     7    13 ar  
    17     9    10 ar  
    18    10    11 ar  
    19    10    17 1   
    20    11    12 ar  
    21    11    25 1   
    22    12    13 ar  
    23    12    18 1   
    24    13    19 1   
    25    20    25 1   
    26    21    25 1   
@<TRIPOS>SUBSTRUCTURE
     1 N2Y         1 TEMP              0 ****  ****    0 ROOT
