@<TRIPOS>MOLECULE
N2Y
   25    26     1     0     0
SMALL
bcc


@<TRIPOS>ATOM
      1 N2          -3.3500    -1.8930     0.9250 n2         1 N2Y      -0.881100
      2 N3          -2.1110    -0.0140     0.2930 nh         1 N2Y      -0.766600
      3 C1          -3.2180    -0.8260     0.2340 c2         1 N2Y       0.795100
      4 N4          -4.0940    -0.2530    -0.6610 nu         1 N2Y      -0.868200
      5 C2          -3.4250     0.7950    -1.4110 c5         1 N2Y       0.183800
      6 C3          -2.3500     1.2220    -0.4190 c5         1 N2Y       0.199800
      7 C4           2.8340     0.2870     0.2040 ca         1 N2Y       0.507300
      8 CL1          4.5080     0.4570    -0.2330 cl         1 N2Y      -0.173000
      9 N6           2.4220     0.9920     1.2260 nb         1 N2Y      -0.659000
     10 C5           1.1430     0.8780     1.5770 ca         1 N2Y       0.416200
     11 C6           0.2360     0.0560     0.9270 ca         1 N2Y      -0.213600
     12 C7           0.7070    -0.6740    -0.1610 ca         1 N2Y      -0.066000
     13 C8           2.0320    -0.5660    -0.5400 ca         1 N2Y      -0.237300
     14 H1          -4.2290    -2.3490     0.7090 hn         1 N2Y       0.387400
     15 H3          -2.9780     0.4190    -2.3360 h1         1 N2Y       0.049700
     16 H4          -2.7160     2.0080     0.2550 h1         1 N2Y       0.052700
     17 H5           0.8260     1.4790     2.4240 h4         1 N2Y       0.024100
     18 H6           0.0400    -1.3230    -0.7140 ha         1 N2Y       0.153000
     19 H7           2.4280    -1.1190    -1.3790 ha         1 N2Y       0.157000
     20 H8          -1.4010     0.7420     2.1170 h1         1 N2Y       0.068700
     21 H9          -1.3350    -1.0020     1.9120 h1         1 N2Y       0.068700
     22 H2          -4.7160    -0.8710    -1.1580 hn         1 N2Y       0.418800
     23 H10         -4.1040     1.6090    -1.6630 h1         1 N2Y       0.049700
     24 H11         -1.4490     1.5900    -0.9100 h1         1 N2Y       0.052700
     25 C9          -1.1910    -0.0540     1.3920 c3         1 N2Y       0.279100
@<TRIPOS>BOND
     1     1     3 2   
     2     1    14 1   
     3     2     3 1   
     4     2     6 1   
     5     2    25 1   
     6     3     4 1   
     7     4     5 1   
     8     4    22 1   
     9     5     6 1   
    10     5    15 1   
    11     5    23 1   
    12     6    16 1   
    13     6    24 1   
    14     7     8 1   
    15     7     9 ar  
    16     7    13 ar  
    17     9    10 ar  
    18    10    11 ar  
    19    10    17 1   
    20    11    12 ar  
    21    11    25 1   
    22    12    13 ar  
    23    12    18 1   
    24    13    19 1   
    25    20    25 1   
    26    21    25 1   
@<TRIPOS>SUBSTRUCTURE
     1 N2Y         1 TEMP              0 ****  ****    0 ROOT
