@<TRIPOS>MOLECULE
N2Z
   18    19     1     0     0
SMALL
No Charge or Current Charge


@<TRIPOS>ATOM
      1 N1           0.3840    20.6660   -12.8390 na         1 N2Z      -0.486000
      2 N3           0.5600    21.0100   -14.9890 nc         1 N2Z      -0.354000
      3 C4           0.0990    17.6050   -13.4070 ca         1 N2Z       0.130000
      4 C5          -0.0190    16.2570   -13.7910 ca         1 N2Z      -0.107000
      5 C6           0.0310    15.8870   -15.1420 ca         1 N2Z      -0.088000
      6 C7           0.1980    16.8730   -16.1220 ca         1 N2Z      -0.110000
      7 C8           0.3160    18.2230   -15.7520 ca         1 N2Z      -0.061000
      8 C1           0.4010    20.0670   -14.0680 cd         1 N2Z       0.433000
      9 C2           0.5390    22.0080   -13.0490 cd         1 N2Z       0.371400
     10 N2           0.6470    22.2300   -14.3490 nc         1 N2Z      -0.356000
     11 C3           0.2700    18.6210   -14.3910 ca         1 N2Z      -0.120500
     12 H1           0.2770    20.2020   -11.9490 hn         1 N2Z       0.369000
     13 H2          -0.1490    15.4910   -13.0300 ha         1 N2Z       0.132000
     14 H3          -0.0610    14.8410   -15.4270 ha         1 N2Z       0.122000
     15 H4           0.2370    16.5930   -17.1730 ha         1 N2Z       0.125000
     16 H5           0.4450    18.9600   -16.5410 ha         1 N2Z       0.142000
     17 H6           0.5640    22.7380   -12.2490 h5         1 N2Z       0.065100
     18 Cl1          0.0200    17.9280   -11.6730 cl         1 N2Z      -0.208000
@<TRIPOS>BOND
     1     1     8 1   
     2     1     9 1   
     3     1    12 1   
     4     2     8 2   
     5     2    10 1   
     6     3     4 ar  
     7     3    11 ar  
     8     3    18 1   
     9     4     5 ar  
    10     4    13 1   
    11     5     6 ar  
    12     5    14 1   
    13     6     7 ar  
    14     6    15 1   
    15     7    11 ar  
    16     7    16 1   
    17     8    11 1   
    18     9    10 2   
    19     9    17 1   
@<TRIPOS>SUBSTRUCTURE
     1 N2Z         1 TEMP              0 ****  ****    0 ROOT
