@<TRIPOS>MOLECULE
N2Z
   18    19     1     0     0
SMALL
bcc


@<TRIPOS>ATOM
      1 N1           0.7160    20.6090   -12.9100 na         1 N2Z      -0.435700
      2 N3          -0.1280    20.9910   -14.8700 nc         1 N2Z      -0.354000
      3 C4          -0.1200    17.6130   -13.4380 ca         1 N2Z       0.038400
      4 C5          -0.1670    16.2790   -13.8130 ca         1 N2Z      -0.125000
      5 C6           0.0870    15.9260   -15.1290 ca         1 N2Z      -0.106000
      6 C7           0.3800    16.9060   -16.0660 ca         1 N2Z      -0.128000
      7 C8           0.4290    18.2340   -15.6800 ca         1 N2Z      -0.079000
      8 C1           0.2390    20.0440   -14.0440 cd         1 N2Z       0.433000
      9 C2           0.6170    21.9390   -13.1010 cd         1 N2Z       0.371400
     10 N2           0.1090    22.1820   -14.2760 nc         1 N2Z      -0.356000
     11 C3           0.1850    18.6160   -14.3590 ca         1 N2Z      -0.120500
     12 H1           1.0950    20.1480   -12.0980 hn         1 N2Z       0.318700
     13 H2          -0.4060    15.5220   -13.0790 ha         1 N2Z       0.150000
     14 H3           0.0520    14.8830   -15.4150 ha         1 N2Z       0.140000
     15 H4           0.5790    16.6390   -17.0950 ha         1 N2Z       0.143000
     16 H5           0.6690    18.9990   -16.4060 ha         1 N2Z       0.160000
     17 H6           0.9210    22.6700   -12.3710 h5         1 N2Z       0.065100
     18 CL1         -0.4970    17.9990   -11.7900 cl         1 N2Z      -0.116400
@<TRIPOS>BOND
     1     1     8 1   
     2     1     9 1   
     3     1    12 1   
     4     2     8 2   
     5     2    10 1   
     6     3     4 ar  
     7     3    11 ar  
     8     3    18 1   
     9     4     5 ar  
    10     4    13 1   
    11     5     6 ar  
    12     5    14 1   
    13     6     7 ar  
    14     6    15 1   
    15     7    11 ar  
    16     7    16 1   
    17     8    11 1   
    18     9    10 2   
    19     9    17 1   
@<TRIPOS>SUBSTRUCTURE
     1 N2Z         1 TEMP              0 ****  ****    0 ROOT
