@<TRIPOS>MOLECULE
N30
   65    67     1     0     0
SMALL
abcg2


@<TRIPOS>ATOM
      1 C11          0.9860    -0.4370     1.9580 c6         1 N30       0.352300
      2 O11          1.3180    -1.3490     0.9540 os         1 N30      -0.507000
      3 C21          1.9760    -0.5880     3.1100 c6         1 N30       0.104500
      4 N21          3.3730    -0.3690     2.7940 n8         1 N30      -1.018200
      5 C31          1.8000    -1.9640     3.7490 c6         1 N30       0.142300
      6 O31          2.6440    -2.0960     4.8670 oh         1 N30      -0.671000
      7 C41          0.3530    -2.1440     4.1900 c6         1 N30       0.148300
      8 O41          0.1010    -3.4460     4.6640 oh         1 N30      -0.721000
      9 C51         -0.5830    -1.8940     3.0050 c6         1 N30       0.130300
     10 O51         -0.3190    -0.6300     2.4210 os         1 N30      -0.454000
     11 C61         -2.0460    -1.8890     3.4190 c3         1 N30       0.165600
     12 O61         -2.9200    -1.6530     2.3400 oh         1 N30      -0.712000
     13 C12          2.3900    -2.5990    -2.2570 c6         1 N30       0.136500
     14 N12          1.7760    -2.3740    -3.5580 n8         1 N30      -0.999200
     15 C22          1.4050    -3.2950    -1.3130 c6         1 N30      -0.109400
     16 C32          0.2200    -2.4130    -0.8970 c6         1 N30       0.173500
     17 N32         -0.7600    -2.1670    -1.9480 n8         1 N30      -0.995200
     18 C42          0.7050    -1.0850    -0.3080 c6         1 N30       0.145300
     19 C52          1.7330    -0.3490    -1.1830 c6         1 N30       0.144300
     20 O52          1.1050     0.2240    -2.3110 os         1 N30      -0.464000
     21 C62          2.8720    -1.2710    -1.6530 c6         1 N30       0.171300
     22 O62          3.7800    -1.5250    -0.5970 oh         1 N30      -0.722000
     23 C13          0.7940     1.5790    -2.2050 c5         1 N30       0.372300
     24 C23          0.1370     1.9920    -3.5140 c5         1 N30       0.118300
     25 O23          0.2520     3.3850    -3.6490 oh         1 N30      -0.710000
     26 C33         -1.3140     1.5850    -3.2360 c5         1 N30       0.089300
     27 O33         -2.2570     2.2980    -3.9950 oh         1 N30      -0.712000
     28 C43         -1.4720     1.9160    -1.7510 c5         1 N30       0.177300
     29 O43         -0.1540     1.8510    -1.2090 os         1 N30      -0.460000
     30 C53         -2.4250     0.9780    -1.0300 c3         1 N30       0.143800
     31 N53         -2.5330     1.2840     0.3920 n8         1 N30      -1.012200
     32 H11          1.0020     0.5900     1.5690 h2         1 N30       0.088700
     33 H21          1.6990     0.1630     3.8570 h1         1 N30       0.081700
     34 H211         3.5660     0.6200     2.7080 hn         1 N30       0.416000
     35 H212         3.6220    -0.7900     1.9080 hn         1 N30       0.416000
     36 H31          2.0290    -2.7410     3.0020 h1         1 N30       0.054700
     37 HO31         3.4840    -1.6950     4.6030 ho         1 N30       0.476000
     38 H41          0.1390    -1.3920     4.9670 h1         1 N30       0.049700
     39 HO41         0.6520    -3.5960     5.4380 ho         1 N30       0.525000
     40 H51         -0.4260    -2.6950     2.2670 h1         1 N30       0.053700
     41 H611        -2.2150    -1.0860     4.1420 h1         1 N30       0.060700
     42 H612        -2.2750    -2.8340     3.9220 h1         1 N30       0.060700
     43 HO61        -2.8690    -2.4020     1.7390 ho         1 N30       0.498000
     44 H121         2.4240    -1.8870    -4.1640 hn         1 N30       0.399000
     45 H122         1.6000    -3.2690    -3.9970 hn         1 N30       0.399000
     46 H221         1.0320    -4.2080    -1.7870 hc         1 N30       0.047200
     47 H222         1.9400    -3.6370    -0.4210 hc         1 N30       0.047200
     48 H32         -0.3140    -2.9220    -0.0870 h1         1 N30       0.054700
     49 H321        -0.2650    -1.8630    -2.7800 hn         1 N30       0.407500
     50 H322        -1.1830    -3.0540    -2.1940 hn         1 N30       0.407500
     51 H42         -0.1640    -0.4410    -0.1700 h1         1 N30       0.098700
     52 H52          2.1970     0.4430    -0.5740 h1         1 N30       0.051700
     53 H62          3.4500    -0.7270    -2.4070 h1         1 N30       0.077700
     54 HO62         3.3190    -2.0230     0.0860 ho         1 N30       0.515000
     55 H13          1.6980     2.1570    -1.9660 h2         1 N30       0.081700
     56 H23          0.5690     1.4640    -4.3720 h1         1 N30       0.066700
     57 HO23        -0.5310     3.6950    -4.1210 ho         1 N30       0.524000
     58 H33         -1.4160     0.5030    -3.3860 h1         1 N30       0.068700
     59 HO33        -2.3260     1.8870    -4.8620 ho         1 N30       0.509000
     60 H43         -1.8340     2.9470    -1.6400 h1         1 N30       0.079700
     61 H531        -2.0940    -0.0520    -1.1940 h1         1 N30       0.044200
     62 H532        -3.3960     1.0690    -1.5270 h1         1 N30       0.044200
     63 HN1         -2.2720     0.4830     0.9490 hn         1 N30       0.409000
     64 HN2         -3.4890     1.4990     0.6350 hn         1 N30       0.409000
     65 H12          3.2860    -3.2350    -2.3310 h1         1 N30       0.031700
@<TRIPOS>BOND
     1     1     2 1   
     2     1     3 1   
     3     1    10 1   
     4     1    32 1   
     5     2    18 1   
     6     3     4 1   
     7     3     5 1   
     8     3    33 1   
     9     4    34 1   
    10     4    35 1   
    11     5     6 1   
    12     5     7 1   
    13     5    36 1   
    14     6    37 1   
    15     7     8 1   
    16     7     9 1   
    17     7    38 1   
    18     8    39 1   
    19     9    10 1   
    20     9    11 1   
    21     9    40 1   
    22    11    12 1   
    23    11    41 1   
    24    11    42 1   
    25    12    43 1   
    26    13    14 1   
    27    13    15 1   
    28    13    21 1   
    29    13    65 1   
    30    14    44 1   
    31    14    45 1   
    32    15    16 1   
    33    15    46 1   
    34    15    47 1   
    35    16    17 1   
    36    16    18 1   
    37    16    48 1   
    38    17    49 1   
    39    17    50 1   
    40    18    19 1   
    41    18    51 1   
    42    19    20 1   
    43    19    21 1   
    44    19    52 1   
    45    20    23 1   
    46    21    22 1   
    47    21    53 1   
    48    22    54 1   
    49    23    24 1   
    50    23    29 1   
    51    23    55 1   
    52    24    25 1   
    53    24    26 1   
    54    24    56 1   
    55    25    57 1   
    56    26    27 1   
    57    26    28 1   
    58    26    58 1   
    59    27    59 1   
    60    28    29 1   
    61    28    30 1   
    62    28    60 1   
    63    30    31 1   
    64    30    61 1   
    65    30    62 1   
    66    31    63 1   
    67    31    64 1   
@<TRIPOS>SUBSTRUCTURE
     1 N30         1 TEMP              0 ****  ****    0 ROOT
