@<TRIPOS>MOLECULE
N30
   65    67     1     0     0
SMALL
No Charge or Current Charge


@<TRIPOS>ATOM
      1 C11          1.4520    -0.7350     2.1500 c6         1 N30       0.352300
      2 O11          1.5430    -1.7400     1.1050 os         1 N30      -0.507000
      3 C21          2.2450    -1.1680     3.4380 c6         1 N30       0.104500
      4 N21          3.7060    -1.4820     3.2450 n8         1 N30      -1.018200
      5 C31          1.5440    -2.3840     4.0980 c6         1 N30       0.142300
      6 O31          2.2890    -2.7540     5.2640 oh         1 N30      -0.671000
      7 C41          0.0620    -2.0480     4.4220 c6         1 N30       0.148300
      8 O41         -0.5740    -3.1850     5.0340 oh         1 N30      -0.721000
      9 C51         -0.6410    -1.6210     3.0970 c6         1 N30       0.130300
     10 O51          0.0650    -0.5000     2.4950 os         1 N30      -0.454000
     11 C61         -2.1280    -1.1910     3.3170 c3         1 N30       0.165600
     12 O61         -2.7850    -0.7570     2.1050 oh         1 N30      -0.712000
     13 C12          2.5870    -1.9920    -2.4570 c6         1 N30       0.136500
     14 N12          1.8340    -1.8280    -3.7280 n8         1 N30      -0.999200
     15 C22          2.0060    -3.1660    -1.6140 c6         1 N30      -0.109400
     16 C32          0.6510    -2.8180    -0.9400 c6         1 N30       0.173500
     17 N32         -0.4040    -2.7590    -1.9730 n8         1 N30      -0.995200
     18 C42          0.7500    -1.4970    -0.0980 c6         1 N30       0.145300
     19 C52          1.3120    -0.3000    -0.9350 c6         1 N30       0.144300
     20 O52          0.3150     0.1730    -1.8690 os         1 N30      -0.464000
     21 C62          2.6810    -0.6740    -1.6020 c6         1 N30       0.171300
     22 O62          3.6710    -0.8490    -0.5690 oh         1 N30      -0.722000
     23 C13          0.4820     1.5090    -2.3900 c5         1 N30       0.372300
     24 C23         -0.1510     1.5440    -3.8210 c5         1 N30       0.118300
     25 O23          0.1350     2.7420    -4.5580 oh         1 N30      -0.710000
     26 C33         -1.6810     1.5300    -3.4850 c5         1 N30       0.089300
     27 O33         -2.4100     2.2970    -4.4730 oh         1 N30      -0.712000
     28 C43         -1.7490     2.1440    -2.0320 c5         1 N30       0.177300
     29 O43         -0.3720     2.3910    -1.6370 os         1 N30      -0.460000
     30 C53         -2.4730     1.2260    -0.9910 c3         1 N30       0.143800
     31 N53         -2.4300     1.7610     0.3940 n8         1 N30      -1.012200
     32 H11          1.8860     0.2090     1.7870 h2         1 N30       0.088700
     33 H21          2.1910    -0.3240     4.1450 h1         1 N30       0.081700
     34 H211         4.1890    -0.6590     2.8590 hn         1 N30       0.416000
     35 H212         3.7980    -2.1820     2.4970 hn         1 N30       0.416000
     36 H31          1.5580    -3.2160     3.3760 h1         1 N30       0.054700
     37 HO31         3.2070    -2.4760     5.0180 ho         1 N30       0.476000
     38 H41          0.0420    -1.1930     5.1150 h1         1 N30       0.049700
     39 HO41         0.1150    -3.5680     5.6300 ho         1 N30       0.525000
     40 H51         -0.6290    -2.4670     2.3950 h1         1 N30       0.053700
     41 H611        -2.1380    -0.3810     4.0590 h1         1 N30       0.060700
     42 H612        -2.6720    -2.0370     3.7610 h1         1 N30       0.060700
     43 HO61        -2.9270    -1.5620     1.5560 ho         1 N30       0.498000
     44 H121         2.3140    -1.1350    -4.3130 hn         1 N30       0.399000
     45 H122         1.9220    -2.6920    -4.2750 hn         1 N30       0.399000
     46 H221         1.9020    -4.0650    -2.2380 hc         1 N30       0.047200
     47 H222         2.7290    -3.4420    -0.8340 hc         1 N30       0.047200
     48 H32          0.3760    -3.6370    -0.2570 h1         1 N30       0.054700
     49 H321        -0.0240    -2.1130    -2.6840 hn         1 N30       0.407500
     50 H322        -0.4130    -3.6530    -2.4740 hn         1 N30       0.407500
     51 H42         -0.2740    -1.2410     0.2080 h1         1 N30       0.098700
     52 H52          1.4950     0.5350    -0.2450 h1         1 N30       0.051700
     53 H62          2.9930     0.1450    -2.2650 h1         1 N30       0.077700
     54 HO62         3.2110    -1.3690     0.1350 ho         1 N30       0.515000
     55 H13          1.5310     1.8320    -2.3830 h2         1 N30       0.081700
     56 H23          0.1370     0.6570    -4.4020 h1         1 N30       0.066700
     57 HO23        -0.7840     3.0190    -4.8210 ho         1 N30       0.524000
     58 H33         -2.0380     0.4900    -3.4690 h1         1 N30       0.068700
     59 HO33        -3.3660     2.0610    -4.3900 ho         1 N30       0.509000
     60 H43         -2.2720     3.1100    -2.0440 h1         1 N30       0.079700
     61 H531        -2.0050     0.2330    -0.9930 h1         1 N30       0.044200
     62 H532        -3.5240     1.0960    -1.2870 h1         1 N30       0.044200
     63 HN1         -1.4480     1.9640     0.6130 hn         1 N30       0.409000
     64 HN2         -2.6490     0.9900     1.0470 hn         1 N30       0.409000
     65 H12          3.6090    -2.2690    -2.7580 h1         1 N30       0.031700
@<TRIPOS>BOND
     1     1     2 1   
     2     1     3 1   
     3     1    10 1   
     4     1    32 1   
     5     2    18 1   
     6     3     4 1   
     7     3     5 1   
     8     3    33 1   
     9     4    34 1   
    10     4    35 1   
    11     5     6 1   
    12     5     7 1   
    13     5    36 1   
    14     6    37 1   
    15     7     8 1   
    16     7     9 1   
    17     7    38 1   
    18     8    39 1   
    19     9    10 1   
    20     9    11 1   
    21     9    40 1   
    22    11    12 1   
    23    11    41 1   
    24    11    42 1   
    25    12    43 1   
    26    13    14 1   
    27    13    15 1   
    28    13    21 1   
    29    13    65 1   
    30    14    44 1   
    31    14    45 1   
    32    15    16 1   
    33    15    46 1   
    34    15    47 1   
    35    16    17 1   
    36    16    18 1   
    37    16    48 1   
    38    17    49 1   
    39    17    50 1   
    40    18    19 1   
    41    18    51 1   
    42    19    20 1   
    43    19    21 1   
    44    19    52 1   
    45    20    23 1   
    46    21    22 1   
    47    21    53 1   
    48    22    54 1   
    49    23    24 1   
    50    23    29 1   
    51    23    55 1   
    52    24    25 1   
    53    24    26 1   
    54    24    56 1   
    55    25    57 1   
    56    26    27 1   
    57    26    28 1   
    58    26    58 1   
    59    27    59 1   
    60    28    29 1   
    61    28    30 1   
    62    28    60 1   
    63    30    31 1   
    64    30    61 1   
    65    30    62 1   
    66    31    63 1   
    67    31    64 1   
@<TRIPOS>SUBSTRUCTURE
     1 N30         1 TEMP              0 ****  ****    0 ROOT
