@<TRIPOS>MOLECULE
N31
   52    53     1     0     0
SMALL
No Charge or Current Charge


@<TRIPOS>ATOM
      1 C1          -5.1770    -1.5020    -0.5840 ca         1 N31      -0.116000
      2 C2          -7.9840    -1.5430    -1.0250 ca         1 N31      -0.048000
      3 C3          -7.1420    -2.4670    -1.6840 ca         1 N31      -0.136000
      4 C4          -5.7440    -2.4460    -1.4650 ca         1 N31      -0.094000
      5 C5          -7.4000    -0.6130    -0.1530 ca         1 N31       0.067400
      6 C6          -3.6940     1.6740     0.4520 c3         1 N31      -0.184400
      7 N1          -5.8030     0.4050     0.9370 na         1 N31      -0.188600
      8 C8          -6.0470    -0.6030     0.0510 ca         1 N31      -0.084200
      9 C9          -7.0320     0.9890     1.2520 cc         1 N31       0.420700
     10 N2          -8.0400     0.3780     0.5900 nd         1 N31      -0.573100
     11 C10         -2.3110     2.0060     1.0020 c          1 N31       0.603100
     12 O1          -2.1430     2.7810     1.9320 o          1 N31      -0.612100
     13 N3          -1.2590     1.3990     0.3600 ns         1 N31      -0.496900
     14 C11          0.1650     1.5860     0.7170 c3         1 N31       0.021000
     15 C12          1.1060     0.7620    -0.1940 c          1 N31       0.591100
     16 O3           0.6990     0.0390    -1.0950 o          1 N31      -0.616100
     17 N4           2.4480     0.8950     0.0890 ns         1 N31      -0.492900
     18 C13          3.5450     0.2200    -0.6410 c3         1 N31       0.035700
     19 C14          4.8340     0.1770     0.2330 c          1 N31       0.594100
     20 O5           4.9430     0.7890     1.2900 o          1 N31      -0.616100
     21 C15          3.7960     0.9050    -2.0070 c3         1 N31      -0.110100
     22 N5           5.8580    -0.6020    -0.2650 ns         1 N31      -0.490900
     23 C16          7.1730    -0.8030     0.3830 c3         1 N31       0.029700
     24 C17          8.2290    -1.2740    -0.6630 c          1 N31       0.595100
     25 O7           7.9660    -1.4980    -1.8350 o          1 N31      -0.609100
     26 C18          7.0590    -1.7700     1.5880 c3         1 N31      -0.108100
     27 N6           9.4950    -1.4430    -0.2170 nt         1 N31      -0.599000
     28 H1          -4.1040    -1.4790    -0.4090 ha         1 N31       0.115000
     29 H2          -9.0590    -1.5520    -1.1880 ha         1 N31       0.128000
     30 H3          -7.5720    -3.1980    -2.3650 ha         1 N31       0.113000
     31 H4          -5.1040    -3.1620    -1.9770 ha         1 N31       0.112000
     32 H5          -3.6060     1.1630    -0.5140 hc         1 N31       0.074200
     33 H6          -3.8920    -0.1590     1.6060 h1         1 N31       0.074200
     34 H7          -4.5700     1.2720     2.3960 h1         1 N31       0.074200
     35 H8          -7.1230     1.8210     1.9400 h5         1 N31       0.061800
     36 H9          -4.2580     2.6050     0.3300 hc         1 N31       0.074200
     37 H11         -1.4830     0.7790    -0.4130 hn         1 N31       0.344500
     38 H13          0.4330     2.6460     0.6210 h1         1 N31       0.071700
     39 H14          0.3300     1.2740     1.7560 h1         1 N31       0.071700
     40 H16          2.6970     1.4930     0.8710 hn         1 N31       0.343500
     41 H18          3.2530    -0.8230    -0.8200 h1         1 N31       0.085700
     42 H19          4.1110     1.9460    -1.8660 hc         1 N31       0.053367
     43 H20          4.5780     0.3830    -2.5720 hc         1 N31       0.053367
     44 H21          2.8860     0.9020    -2.6180 hc         1 N31       0.053367
     45 H23          5.6960    -1.0540    -1.1600 hn         1 N31       0.345500
     46 H25          7.5240     0.1680     0.7560 h1         1 N31       0.081700
     47 H26          6.7440    -2.7670     1.2560 hc         1 N31       0.051367
     48 H27          8.0190    -1.8690     2.1080 hc         1 N31       0.051367
     49 H28          6.3240    -1.4040     2.3150 hc         1 N31       0.051367
     50 H30          9.7230    -1.2600     0.7490 hn         1 N31       0.320000
     51 H31         10.2070    -1.7500    -0.8630 hn         1 N31       0.320000
     52 C7          -4.4630     0.7620     1.4300 c3         1 N31       0.092600
@<TRIPOS>BOND
     1     1     4 ar  
     2     1     8 ar  
     3     1    28 1   
     4     2     3 ar  
     5     2     5 ar  
     6     2    29 1   
     7     3     4 ar  
     8     3    30 1   
     9     4    31 1   
    10     5     8 ar  
    11     5    10 1   
    12     6    11 1   
    13     6    32 1   
    14     6    36 1   
    15     6    52 1   
    16     7     8 1   
    17     7     9 1   
    18     7    52 1   
    19     9    10 2   
    20     9    35 1   
    21    11    12 2   
    22    11    13 1   
    23    13    14 1   
    24    13    37 1   
    25    14    15 1   
    26    14    38 1   
    27    14    39 1   
    28    15    16 2   
    29    15    17 1   
    30    17    18 1   
    31    17    40 1   
    32    18    19 1   
    33    18    21 1   
    34    18    41 1   
    35    19    20 2   
    36    19    22 1   
    37    21    42 1   
    38    21    43 1   
    39    21    44 1   
    40    22    23 1   
    41    22    45 1   
    42    23    24 1   
    43    23    26 1   
    44    23    46 1   
    45    24    25 2   
    46    24    27 1   
    47    26    47 1   
    48    26    48 1   
    49    26    49 1   
    50    27    50 1   
    51    27    51 1   
    52    33    52 1   
    53    34    52 1   
@<TRIPOS>SUBSTRUCTURE
     1 N31         1 TEMP              0 ****  ****    0 ROOT
