@<TRIPOS>MOLECULE
N31
   52    53     1     0     0
SMALL
bcc


@<TRIPOS>ATOM
      1 C1          -5.8100    -1.7240    -0.1980 ca         1 N31      -0.134000
      2 C2          -8.3070    -0.9060    -1.2980 ca         1 N31      -0.066000
      3 C3          -7.8090    -2.1790    -1.5070 ca         1 N31      -0.154000
      4 C4          -6.5800    -2.5830    -0.9630 ca         1 N31      -0.112000
      5 C5          -7.5470    -0.0250    -0.5300 ca         1 N31       0.067400
      6 C6          -3.4120     0.8620     0.4080 c3         1 N31      -0.184400
      7 N1          -5.8420     0.6410     0.6980 na         1 N31      -0.159300
      8 C8          -6.3170    -0.4440     0.0040 ca         1 N31      -0.084200
      9 C9          -6.7650     1.6240     0.5470 cc         1 N31       0.420700
     10 N2          -7.7960     1.2780    -0.1680 nd         1 N31      -0.573100
     11 C10         -2.0980     1.0920     1.1230 c          1 N31       0.670100
     12 O1          -2.0290     1.6920     2.1880 o          1 N31      -0.612100
     13 N3          -1.0170     0.6240     0.4860 ns         1 N31      -0.563900
     14 C11          0.3180     0.8400     0.9680 c3         1 N31       0.021000
     15 C12          1.3190     0.3370    -0.0590 c          1 N31       0.658100
     16 O3           0.9740    -0.3190    -1.0320 o          1 N31      -0.616100
     17 N4           2.5880     0.6570     0.2120 ns         1 N31      -0.559900
     18 C13          3.6960     0.2750    -0.6300 c3         1 N31       0.035700
     19 C14          4.9590     0.2530     0.2270 c          1 N31       0.661100
     20 O5           5.0590     0.9300     1.2400 o          1 N31      -0.616100
     21 C15          3.8850     1.2390    -1.8040 c3         1 N31      -0.110100
     22 N5           5.9400    -0.5140    -0.2560 ns         1 N31      -0.557900
     23 C16          7.2480    -0.6060     0.3460 c3         1 N31       0.029700
     24 C17          8.2410    -1.0040    -0.7440 c          1 N31       0.662100
     25 O7           7.8740    -1.5480    -1.7750 o          1 N31      -0.609100
     26 C18          7.2850    -1.6270     1.4850 c3         1 N31      -0.108100
     27 N6           9.5190    -0.7450    -0.4550 nt         1 N31      -0.666000
     28 H1          -4.8630    -2.0430     0.2190 ha         1 N31       0.133000
     29 H2          -9.2570    -0.5990    -1.7170 ha         1 N31       0.146000
     30 H3          -8.3760    -2.8830    -2.1040 ha         1 N31       0.131000
     31 H4          -6.2260    -3.5880    -1.1470 ha         1 N31       0.130000
     32 H5          -3.3560    -0.0230    -0.2280 hc         1 N31       0.074200
     33 H6          -4.4530    -0.1120     2.0400 h1         1 N31       0.074200
     34 H7          -4.6220     1.6330     2.0230 h1         1 N31       0.074200
     35 H8          -6.6220     2.5930     1.0040 h5         1 N31       0.061800
     36 H9          -3.5790     1.7130    -0.2600 hc         1 N31       0.074200
     37 H11         -1.1170     0.1080    -0.3750 hn         1 N31       0.344500
     38 H13          0.4960     1.9000     1.1650 h1         1 N31       0.071700
     39 H14          0.4950     0.3120     1.9120 h1         1 N31       0.071700
     40 H16          2.7980     1.2400     1.0090 hn         1 N31       0.343500
     41 H18          3.5090    -0.7280    -1.0190 h1         1 N31       0.085700
     42 H19          4.0880     2.2490    -1.4470 hc         1 N31       0.053367
     43 H20          4.7130     0.9250    -2.4390 hc         1 N31       0.053367
     44 H21          2.9850     1.2620    -2.4150 hc         1 N31       0.053367
     45 H23          5.7770    -1.0830    -1.0740 hn         1 N31       0.345500
     46 H25          7.5230     0.3760     0.7360 h1         1 N31       0.081700
     47 H26          7.0380    -2.6240     1.1200 hc         1 N31       0.051367
     48 H27          8.2710    -1.6660     1.9490 hc         1 N31       0.051367
     49 H28          6.5660    -1.3530     2.2550 hc         1 N31       0.051367
     50 H30          9.7910    -0.2790     0.3940 hn         1 N31       0.320000
     51 H31         10.2530    -1.0260    -1.0850 hn         1 N31       0.320000
     52 C7          -4.5750     0.7520     1.3860 c3         1 N31       0.063300
@<TRIPOS>BOND
     1     1     4 ar  
     2     1     8 ar  
     3     1    28 1   
     4     2     3 ar  
     5     2     5 ar  
     6     2    29 1   
     7     3     4 ar  
     8     3    30 1   
     9     4    31 1   
    10     5     8 ar  
    11     5    10 1   
    12     6    11 1   
    13     6    32 1   
    14     6    36 1   
    15     6    52 1   
    16     7     8 1   
    17     7     9 1   
    18     7    52 1   
    19     9    10 2   
    20     9    35 1   
    21    11    12 2   
    22    11    13 1   
    23    13    14 1   
    24    13    37 1   
    25    14    15 1   
    26    14    38 1   
    27    14    39 1   
    28    15    16 2   
    29    15    17 1   
    30    17    18 1   
    31    17    40 1   
    32    18    19 1   
    33    18    21 1   
    34    18    41 1   
    35    19    20 2   
    36    19    22 1   
    37    21    42 1   
    38    21    43 1   
    39    21    44 1   
    40    22    23 1   
    41    22    45 1   
    42    23    24 1   
    43    23    26 1   
    44    23    46 1   
    45    24    25 2   
    46    24    27 1   
    47    26    47 1   
    48    26    48 1   
    49    26    49 1   
    50    27    50 1   
    51    27    51 1   
    52    33    52 1   
    53    34    52 1   
@<TRIPOS>SUBSTRUCTURE
     1 N31         1 TEMP              0 ****  ****    0 ROOT
