@<TRIPOS>MOLECULE
N32
   57    60     1     0     0
SMALL
abcg2


@<TRIPOS>ATOM
      1 C1          -3.9070     2.3830    -0.2620 c6         1 N32      -0.028500
      2 O19         -2.4020    -3.3520     1.0540 o          1 N32      -0.520100
      3 O20          1.6210    -0.6860     1.5520 o          1 N32      -0.575100
      4 N28          1.9510    -1.0800    -0.6470 ns         1 N32      -0.146000
      5 C11          1.1600    -0.9080     0.4500 c          1 N32       0.602100
      6 C2          -0.3210    -1.0310     0.1660 c3         1 N32      -0.166400
      7 C3          -1.1800    -0.8370     1.4070 c3         1 N32      -0.051400
      8 C4          -2.6960    -0.9690     1.1960 c6         1 N32      -0.130000
      9 C5          -3.0840    -2.3820     0.7800 c          1 N32       0.570300
     10 C6          -4.3830    -2.5470     0.1100 ce         1 N32      -0.303200
     11 C7          -5.1020    -1.5160    -0.3410 c2         1 N32      -0.143200
     12 C8          -4.6610    -0.0970    -0.2920 c6         1 N32      -0.026800
     13 C9          -3.1760     0.0100     0.1050 c6         1 N32      -0.040700
     14 C10         -2.8330     1.4870     0.3700 c6         1 N32      -0.062400
     15 C15         -4.1570     1.9090    -1.6660 c2         1 N32      -0.110400
     16 C17         -3.8550     2.6090    -2.7530 c2         1 N32      -0.319000
     17 C28         -5.5860     0.7330     0.6230 c6         1 N32      -0.058400
     18 C29         -5.1990     2.2240     0.5440 c6         1 N32      -0.067400
     19 O32          6.7180     2.6480    -0.6360 o          1 N32      -0.694500
     20 O33          4.5690     3.2140    -0.7180 o          1 N32      -0.694500
     21 C22          5.0930     0.9260    -0.6280 ca         1 N32      -0.304600
     22 C23          3.7220     0.6030    -0.6610 ca         1 N32       0.259100
     23 C24          3.3230    -0.7380    -0.6230 ca         1 N32      -0.276000
     24 C25          4.2760    -1.7510    -0.5440 ca         1 N32       0.188100
     25 C26          5.6360    -1.4390    -0.5160 ca         1 N32      -0.244000
     26 C27          6.0180    -0.1120    -0.5570 ca         1 N32       0.008000
     27 H1          -3.5810     3.4250    -0.2580 hc         1 N32       0.061700
     28 H2           1.4930    -1.1300    -1.5460 hn         1 N32       0.130000
     29 H3          -0.5630    -0.2950    -0.6060 hc         1 N32       0.055200
     30 H4          -0.5060    -2.0080    -0.2900 hc         1 N32       0.055200
     31 H5          -0.8710    -1.5480     2.1750 hc         1 N32       0.065700
     32 H6          -0.9860     0.1550     1.8230 hc         1 N32       0.065700
     33 H7          -4.7470    -3.5620     0.0020 ha         1 N32       0.191000
     34 H8          -6.0700    -1.7120    -0.7960 ha         1 N32       0.169000
     35 H9          -2.6370    -0.2900    -0.8030 hc         1 N32       0.054700
     36 H10         -1.8490     1.7270    -0.0390 hc         1 N32       0.056700
     37 H11         -2.7830     1.7020     1.4420 hc         1 N32       0.056700
     38 H12         -4.2790    -0.1000    -2.4420 hc         1 N32       0.048700
     39 H13         -5.8300     0.5870    -1.9870 hc         1 N32       0.048700
     40 H14         -3.4220     3.6010    -2.6850 ha         1 N32       0.164000
     41 H15         -4.0300     2.2220    -3.7510 ha         1 N32       0.164000
     42 H16         -3.2920     0.2750     2.8940 hc         1 N32       0.040033
     43 H17         -4.4160    -1.0450     2.5770 hc         1 N32       0.040033
     44 H18         -2.8610    -1.3740     3.3210 hc         1 N32       0.040033
     45 H19         -6.6190     0.5850     0.2980 hc         1 N32       0.039700
     46 H20         -5.5400     0.3760     1.6490 hc         1 N32       0.039700
     47 H21         -5.0470     2.6310     1.5460 hc         1 N32       0.039700
     48 H22         -5.9970     2.8100     0.0850 hc         1 N32       0.039700
     49 H23          2.9420    -3.0940    -0.5310 ho         1 N32       0.463000
     50 H24          3.3720     2.4210    -0.7320 ho         1 N32       0.556000
     51 H26          6.3710    -2.2310    -0.4580 ha         1 N32       0.107000
     52 H27          7.0720     0.1330    -0.5320 ha         1 N32       0.121000
     53 C14         -4.7750     0.5290    -1.6980 c6         1 N32      -0.033200
     54 C21          5.5180     2.3630    -0.6630 c          1 N32       0.728600
     55 C18         -3.3640    -0.7640     2.5690 c3         1 N32      -0.082100
     56 O31          2.8010     1.5500    -0.7240 oh         1 N32      -0.638100
     57 O30          3.9080    -3.0390    -0.4950 oh         1 N32      -0.550100
@<TRIPOS>BOND
     1     1    14 1   
     2     1    15 1   
     3     1    18 1   
     4     1    27 1   
     5     2     9 2   
     6     3     5 2   
     7     4     5 1   
     8     4    23 1   
     9     4    28 1   
    10     5     6 1   
    11     6     7 1   
    12     6    29 1   
    13     6    30 1   
    14     7     8 1   
    15     7    31 1   
    16     7    32 1   
    17     8     9 1   
    18     8    13 1   
    19     8    55 1   
    20     9    10 1   
    21    10    11 2   
    22    10    33 1   
    23    11    12 1   
    24    11    34 1   
    25    12    13 1   
    26    12    17 1   
    27    12    53 1   
    28    13    14 1   
    29    13    35 1   
    30    14    36 1   
    31    14    37 1   
    32    15    16 2   
    33    15    53 1   
    34    16    40 1   
    35    16    41 1   
    36    17    18 1   
    37    17    45 1   
    38    17    46 1   
    39    18    47 1   
    40    18    48 1   
    41    19    54 1   
    42    20    54 1   
    43    21    22 ar  
    44    21    26 ar  
    45    21    54 1   
    46    22    23 ar  
    47    22    56 1   
    48    23    24 ar  
    49    24    25 ar  
    50    24    57 1   
    51    25    26 ar  
    52    25    51 1   
    53    26    52 1   
    54    38    53 1   
    55    39    53 1   
    56    42    55 1   
    57    43    55 1   
    58    44    55 1   
    59    49    57 1   
    60    50    56 1   
@<TRIPOS>SUBSTRUCTURE
     1 N32         1 TEMP              0 ****  ****    0 ROOT
