@<TRIPOS>MOLECULE
N32
   57    60     1     0     0
SMALL
No Charge or Current Charge


@<TRIPOS>ATOM
      1 C1          -3.7440     2.4100    -0.2120 c6         1 N32      -0.028500
      2 O19         -2.7910    -3.6090     1.0130 o          1 N32      -0.520100
      3 O20          1.5320    -2.7940     0.7420 o          1 N32      -0.575100
      4 N28          1.9420    -0.7340    -0.2250 ns         1 N32      -0.146000
      5 C11          1.1220    -1.7740     0.2020 c          1 N32       0.602100
      6 C2          -0.3690    -1.5670    -0.0950 c3         1 N32      -0.166400
      7 C3          -1.1660    -1.2440     1.2000 c3         1 N32      -0.051400
      8 C4          -2.7380    -1.1640     1.0710 c6         1 N32      -0.130000
      9 C5          -3.3240    -2.5570     0.6840 c          1 N32       0.570300
     10 C6          -4.6460    -2.5650    -0.0090 ce         1 N32      -0.303200
     11 C7          -5.2790    -1.4660    -0.4800 c2         1 N32      -0.143200
     12 C8          -4.7180    -0.0550    -0.3670 c6         1 N32      -0.026800
     13 C9          -3.1820    -0.0840     0.0030 c6         1 N32      -0.040700
     14 C10         -2.6490     1.3720     0.2570 c6         1 N32      -0.062400
     15 C15         -4.2830     2.1070    -1.6360 c2         1 N32      -0.110400
     16 C17         -4.2590     2.9800    -2.6530 c2         1 N32      -0.319000
     17 C28         -5.5370     0.8110     0.6520 c6         1 N32      -0.058400
     18 C29         -4.9440     2.2520     0.7610 c6         1 N32      -0.067400
     19 O32          6.8280     2.5090    -1.7240 o          1 N32      -0.694500
     20 O33          4.8070     2.8830    -2.3570 o          1 N32      -0.694500
     21 C22          5.1620     1.0360    -0.9470 ca         1 N32      -0.304600
     22 C23          3.8030     0.6540    -0.9130 ca         1 N32       0.259100
     23 C24          3.3580    -0.4700    -0.1790 ca         1 N32      -0.276000
     24 C25          4.3200    -1.2150     0.5480 ca         1 N32       0.188100
     25 C26          5.6660    -0.8390     0.5230 ca         1 N32      -0.244000
     26 C27          6.0920     0.2700    -0.2160 ca         1 N32       0.008000
     27 H1          -3.3450     3.4320    -0.1530 hc         1 N32       0.061700
     28 H2           1.4290     0.0090    -0.6840 hn         1 N32       0.130000
     29 H3          -0.4820    -0.7370    -0.8010 hc         1 N32       0.055200
     30 H4          -0.7630    -2.4890    -0.5370 hc         1 N32       0.055200
     31 H5          -0.9010    -2.0010     1.9500 hc         1 N32       0.065700
     32 H6          -0.7800    -0.2990     1.6060 hc         1 N32       0.065700
     33 H7          -5.0850    -3.5520    -0.1440 ha         1 N32       0.191000
     34 H8          -6.2440    -1.5610    -0.9840 ha         1 N32       0.169000
     35 H9          -2.7010    -0.4090    -0.9290 hc         1 N32       0.054700
     36 H10         -1.7220     1.5310    -0.3100 hc         1 N32       0.056700
     37 H11         -2.3950     1.5500     1.3090 hc         1 N32       0.056700
     38 H12         -4.3130     0.1350    -2.5330 hc         1 N32       0.048700
     39 H13         -5.8970     0.7330    -2.0610 hc         1 N32       0.048700
     40 H14         -3.8490     3.9840    -2.5360 ha         1 N32       0.164000
     41 H15         -4.6490     2.7210    -3.6370 ha         1 N32       0.164000
     42 H16         -3.1220     0.1460     2.8440 hc         1 N32       0.040033
     43 H17         -4.3550    -1.1020     2.5960 hc         1 N32       0.040033
     44 H18         -2.8010    -1.5350     3.2540 hc         1 N32       0.040033
     45 H19         -6.5820     0.8780     0.3160 hc         1 N32       0.039700
     46 H20         -5.5900     0.3500     1.6420 hc         1 N32       0.039700
     47 H21         -4.6180     2.4470     1.7920 hc         1 N32       0.039700
     48 H22         -5.7180     2.9970     0.5310 hc         1 N32       0.039700
     49 H23          3.0480    -2.5180     1.1170 ho         1 N32       0.463000
     50 H24          3.4430     2.1040    -2.0340 ho         1 N32       0.556000
     51 H26          6.3960    -1.4160     1.0860 ha         1 N32       0.107000
     52 H27          7.1500     0.5300    -0.2120 ha         1 N32       0.121000
     53 C14         -4.8450     0.6870    -1.7460 c6         1 N32      -0.033200
     54 C21          5.6390     2.2350    -1.7360 c          1 N32       0.728600
     55 C18         -3.2850    -0.8850     2.5150 c3         1 N32      -0.082100
     56 O31          2.8920     1.3850    -1.6080 oh         1 N32      -0.638100
     57 O30          3.9970    -2.2940     1.3030 oh         1 N32      -0.550100
@<TRIPOS>BOND
     1     1    14 1   
     2     1    15 1   
     3     1    18 1   
     4     1    27 1   
     5     2     9 2   
     6     3     5 2   
     7     4     5 1   
     8     4    23 1   
     9     4    28 1   
    10     5     6 1   
    11     6     7 1   
    12     6    29 1   
    13     6    30 1   
    14     7     8 1   
    15     7    31 1   
    16     7    32 1   
    17     8     9 1   
    18     8    13 1   
    19     8    55 1   
    20     9    10 1   
    21    10    11 2   
    22    10    33 1   
    23    11    12 1   
    24    11    34 1   
    25    12    13 1   
    26    12    17 1   
    27    12    53 1   
    28    13    14 1   
    29    13    35 1   
    30    14    36 1   
    31    14    37 1   
    32    15    16 2   
    33    15    53 1   
    34    16    40 1   
    35    16    41 1   
    36    17    18 1   
    37    17    45 1   
    38    17    46 1   
    39    18    47 1   
    40    18    48 1   
    41    19    54 1   
    42    20    54 1   
    43    21    22 ar  
    44    21    26 ar  
    45    21    54 1   
    46    22    23 ar  
    47    22    56 1   
    48    23    24 ar  
    49    24    25 ar  
    50    24    57 1   
    51    25    26 ar  
    52    25    51 1   
    53    26    52 1   
    54    38    53 1   
    55    39    53 1   
    56    42    55 1   
    57    43    55 1   
    58    44    55 1   
    59    49    57 1   
    60    50    56 1   
@<TRIPOS>SUBSTRUCTURE
     1 N32         1 TEMP              0 ****  ****    0 ROOT
