@<TRIPOS>MOLECULE
N33
   73    75     1     0     0
SMALL
No Charge or Current Charge


@<TRIPOS>ATOM
      1 C11          1.4410     2.9300     1.4010 c6         1 N33       0.397300
      2 O11          2.3990     4.0070     1.3120 os         1 N33      -0.439000
      3 C21          1.7510     1.8120     0.3330 c6         1 N33       0.124500
      4 N21          1.9290     2.3490    -1.0570 n8         1 N33      -0.991200
      5 C31          0.6270     0.7120     0.3930 c6         1 N33       0.090300
      6 O31          0.7540    -0.1150     1.5780 os         1 N33      -0.486000
      7 C41         -0.8050     1.3540     0.3360 c6         1 N33       0.144300
      8 O41         -1.0410     1.9100    -0.9760 oh         1 N33      -0.707000
      9 C51         -0.9550     2.5000     1.3900 c6         1 N33       0.100300
     10 O51          0.1110     3.4650     1.1850 os         1 N33      -0.493000
     11 C61         -1.0210     2.0530     2.8970 c3         1 N33       0.149600
     12 O61         -1.1730     3.1600     3.8100 oh         1 N33      -0.742000
     13 C12          3.6980     6.8940     4.3360 c6         1 N33       0.158500
     14 N12          4.0790     7.4450     5.6660 n8         1 N33      -0.962200
     15 C22          2.2450     6.3540     4.4090 c6         1 N33      -0.128400
     16 C32          1.7870     5.7610     3.0530 c6         1 N33       0.153500
     17 N32          0.3840     5.3150     3.1700 n8         1 N33      -1.016200
     18 C42          2.7720     4.6330     2.5740 c6         1 N33       0.146300
     19 C52          4.2050     5.2270     2.4480 c6         1 N33       0.127300
     20 O52          5.1310     4.2410     1.9410 oh         1 N33      -0.732000
     21 C62          4.6850     5.7830     3.8210 c6         1 N33       0.190300
     22 O62          6.0280     6.2750     3.6710 oh         1 N33      -0.634000
     23 C13          1.7730    -4.8970     1.6990 c6         1 N33       0.405300
     24 O13          1.8540    -5.8870     2.7050 oh         1 N33      -0.643000
     25 C23          0.6030    -3.8820     2.0000 c6         1 N33       0.061500
     26 N23         -0.7120    -4.5630     2.3040 n8         1 N33      -1.006200
     27 C33          0.4690    -2.9110     0.7780 c6         1 N33       0.131300
     28 O33          1.6230    -2.0470     0.6360 os         1 N33      -0.474000
     29 C43          0.2230    -3.7590    -0.5150 c6         1 N33       0.158300
     30 O43         -1.0400    -4.4270    -0.3450 oh         1 N33      -0.728000
     31 C53          1.3460    -4.8410    -0.7050 c6         1 N33       0.119300
     32 O53          1.4860    -5.6410     0.5040 os         1 N33      -0.483000
     33 C63          2.7490    -4.3050    -1.1560 c3         1 N33       0.133600
     34 O63          2.7020    -3.6200    -2.4230 oh         1 N33      -0.711000
     35 C77          1.8510    -1.0460     1.6450 c3         1 N33       0.371600
     36 H11          1.5100     2.4740     2.3980 h2         1 N33       0.045700
     37 H21          2.7170     1.3660     0.6120 h1         1 N33       0.071700
     38 H211         2.1360     3.3520    -0.9690 hn         1 N33       0.408500
     39 H212         1.0040     2.3370    -1.5040 hn         1 N33       0.408500
     40 H31          0.7320     0.0540    -0.4830 h1         1 N33       0.079700
     41 H41         -1.5470     0.5690     0.5510 h1         1 N33       0.094700
     42 HO41        -1.0730     2.8870    -0.8550 ho         1 N33       0.506000
     43 H51         -1.9100     3.0080     1.1920 h1         1 N33       0.092700
     44 H611        -0.1260     1.4800     3.1640 h1         1 N33       0.047700
     45 H612        -1.8720     1.3660     3.0040 h1         1 N33       0.047700
     46 HO61        -0.4980     3.8640     3.5670 ho         1 N33       0.543000
     47 H12          3.7170     7.7310     3.6180 h1         1 N33       0.074700
     48 H121         4.1110     6.6790     6.3470 hn         1 N33       0.391000
     49 H122         3.3180     8.0430     6.0080 hn         1 N33       0.391000
     50 H221         2.1710     5.5830     5.1890 hc         1 N33       0.050200
     51 H222         1.5640     7.1650     4.7040 hc         1 N33       0.050200
     52 H32          1.7990     6.5630     2.2990 h1         1 N33       0.040700
     53 H321        -0.2000     6.1510     3.3100 hn         1 N33       0.413500
     54 H322         0.1200     5.0010     2.2190 hn         1 N33       0.413500
     55 H42          2.8090     3.8530     3.3490 h1         1 N33       0.056700
     56 H52          4.1510     6.0700     1.7420 h1         1 N33       0.056700
     57 HO52         4.6600     3.7960     1.1950 ho         1 N33       0.528000
     58 H62          4.6800     4.9530     4.5450 h1         1 N33       0.035700
     59 HO62         6.4380     5.6450     3.0350 ho         1 N33       0.456000
     60 HO13         1.7270    -6.7140     2.1960 ho         1 N33       0.457000
     61 H23          0.8730    -3.3160     2.9020 h1         1 N33       0.041700
     62 H231        -0.5020    -5.3880     2.8860 hn         1 N33       0.407500
     63 H232        -1.2520    -3.9710     2.9510 hn         1 N33       0.407500
     64 H33         -0.4110    -2.2680     0.9310 h1         1 N33       0.065700
     65 H43          0.1990    -3.0940    -1.3920 h1         1 N33       0.097700
     66 HO43        -1.0370    -4.6200     0.6470 ho         1 N33       0.541000
     67 H53          1.0120    -5.5210    -1.5030 h1         1 N33       0.082700
     68 H631         3.4330    -5.1630    -1.2180 h1         1 N33       0.056200
     69 H632         3.1560    -3.6370    -0.3880 h1         1 N33       0.056200
     70 HO63         2.6550    -4.3060    -3.1300 ho         1 N33       0.500000
     71 H771         1.9060    -1.4990     2.6420 h2         1 N33       0.062200
     72 H772         2.8080    -0.5410     1.4720 h2         1 N33       0.062200
     73 H13          2.7330    -4.3640     1.6080 h2         1 N33       0.076700
@<TRIPOS>BOND
     1     1     2 1   
     2     1     3 1   
     3     1    10 1   
     4     1    36 1   
     5     2    18 1   
     6     3     4 1   
     7     3     5 1   
     8     3    37 1   
     9     4    38 1   
    10     4    39 1   
    11     5     6 1   
    12     5     7 1   
    13     5    40 1   
    14     6    35 1   
    15     7     8 1   
    16     7     9 1   
    17     7    41 1   
    18     8    42 1   
    19     9    10 1   
    20     9    11 1   
    21     9    43 1   
    22    11    12 1   
    23    11    44 1   
    24    11    45 1   
    25    12    46 1   
    26    13    14 1   
    27    13    15 1   
    28    13    21 1   
    29    13    47 1   
    30    14    48 1   
    31    14    49 1   
    32    15    16 1   
    33    15    50 1   
    34    15    51 1   
    35    16    17 1   
    36    16    18 1   
    37    16    52 1   
    38    17    53 1   
    39    17    54 1   
    40    18    19 1   
    41    18    55 1   
    42    19    20 1   
    43    19    21 1   
    44    19    56 1   
    45    20    57 1   
    46    21    22 1   
    47    21    58 1   
    48    22    59 1   
    49    23    24 1   
    50    23    25 1   
    51    23    32 1   
    52    23    73 1   
    53    24    60 1   
    54    25    26 1   
    55    25    27 1   
    56    25    61 1   
    57    26    62 1   
    58    26    63 1   
    59    27    28 1   
    60    27    29 1   
    61    27    64 1   
    62    28    35 1   
    63    29    30 1   
    64    29    31 1   
    65    29    65 1   
    66    30    66 1   
    67    31    32 1   
    68    31    33 1   
    69    31    67 1   
    70    33    34 1   
    71    33    68 1   
    72    33    69 1   
    73    34    70 1   
    74    35    71 1   
    75    35    72 1   
@<TRIPOS>SUBSTRUCTURE
     1 N33         1 TEMP              0 ****  ****    0 ROOT
