@<TRIPOS>MOLECULE
N33
   73    75     1     0     0
SMALL
abcg2


@<TRIPOS>ATOM
      1 C11          1.5270     2.9690     1.2720 c6         1 N33       0.397300
      2 O11          2.3090     4.1030     1.3520 os         1 N33      -0.439000
      3 C21          2.0820     1.9540     0.2830 c6         1 N33       0.124500
      4 N21          2.3220     2.5620    -1.0100 n8         1 N33      -0.991200
      5 C31          1.1150     0.7460     0.2850 c6         1 N33       0.090300
      6 O31          1.2300     0.0570     1.5220 os         1 N33      -0.486000
      7 C41         -0.3670     1.1330     0.1220 c6         1 N33       0.144300
      8 O41         -0.6920     1.3270    -1.2390 oh         1 N33      -0.707000
      9 C51         -0.7500     2.3540     0.9690 c6         1 N33       0.100300
     10 O51          0.2410     3.3650     0.8420 os         1 N33      -0.493000
     11 C61         -1.0810     2.0460     2.4320 c3         1 N33       0.149600
     12 O61         -1.4700     3.1930     3.1420 oh         1 N33      -0.742000
     13 C12          3.5120     6.7170     4.4920 c6         1 N33       0.158500
     14 N12          3.8690     7.1840     5.8220 n8         1 N33      -0.962200
     15 C22          2.0340     6.3400     4.3540 c6         1 N33      -0.128400
     16 C32          1.6650     5.8510     2.9600 c6         1 N33       0.153500
     17 N32          0.2470     5.5080     2.9090 n8         1 N33      -1.016200
     18 C42          2.5340     4.6400     2.6470 c6         1 N33       0.146300
     19 C52          4.0110     5.0140     2.7180 c6         1 N33       0.127300
     20 O52          4.8350     3.9010     2.4540 oh         1 N33      -0.732000
     21 C62          4.3880     5.5320     4.1030 c6         1 N33       0.190300
     22 O62          5.7370     5.9260     4.1390 oh         1 N33      -0.634000
     23 C13          2.0330    -4.9260     1.4420 c6         1 N33       0.405300
     24 O13          2.4820    -5.9800     2.2230 oh         1 N33      -0.643000
     25 C23          1.1990    -3.9020     2.2180 c6         1 N33       0.061500
     26 N23          0.0170    -4.5150     2.8160 n8         1 N33      -1.006200
     27 C33          0.7180    -2.8130     1.2470 c6         1 N33       0.131300
     28 O33          1.8120    -2.0570     0.7660 os         1 N33      -0.474000
     29 C43         -0.0090    -3.4460     0.0530 c6         1 N33       0.158300
     30 O43         -1.2660    -3.9340     0.4650 oh         1 N33      -0.728000
     31 C53          0.8160    -4.5630    -0.5970 c6         1 N33       0.119300
     32 O53          1.3090    -5.4770     0.3690 os         1 N33      -0.483000
     33 C63          1.9330    -4.0950    -1.5380 c3         1 N33       0.133600
     34 O63          1.4280    -3.3290    -2.6070 oh         1 N33      -0.711000
     35 C77          2.1770    -0.9650     1.5520 c3         1 N33       0.371600
     36 H11          1.4740     2.4890     2.2580 h2         1 N33       0.045700
     37 H21          3.0450     1.6010     0.6690 h1         1 N33       0.071700
     38 H211         1.5230     3.0900    -1.3330 hn         1 N33       0.408500
     39 H212         2.5060     1.8510    -1.7060 hn         1 N33       0.408500
     40 H31          1.3710     0.0800    -0.5480 h1         1 N33       0.079700
     41 H41         -0.9630     0.2740     0.4450 h1         1 N33       0.094700
     42 HO41        -0.4080     2.2030    -1.5180 ho         1 N33       0.506000
     43 H51         -1.6530     2.7910     0.5300 h1         1 N33       0.092700
     44 H611        -0.2640     1.5150     2.9310 h1         1 N33       0.047700
     45 H612        -1.9300     1.3580     2.4300 h1         1 N33       0.047700
     46 HO61        -0.7450     3.8520     3.1520 ho         1 N33       0.543000
     47 H12          3.7250     7.5330     3.7910 h1         1 N33       0.074700
     48 H121         3.6040     6.4800     6.5030 hn         1 N33       0.391000
     49 H122         3.3080     7.9970     6.0460 hn         1 N33       0.391000
     50 H221         1.7870     5.5620     5.0870 hc         1 N33       0.050200
     51 H222         1.4250     7.2120     4.6100 hc         1 N33       0.050200
     52 H32          1.9060     6.6460     2.2390 h1         1 N33       0.040700
     53 H321        -0.2880     6.2590     3.3320 hn         1 N33       0.413500
     54 H322        -0.0550     5.4740     1.9430 hn         1 N33       0.413500
     55 H42          2.3250     3.8700     3.4050 h1         1 N33       0.056700
     56 H52          4.2010     5.8180     1.9890 h1         1 N33       0.056700
     57 HO52         4.7360     3.6640     1.5270 ho         1 N33       0.528000
     58 H62          4.2020     4.7190     4.8290 h1         1 N33       0.035700
     59 HO62         6.2660     5.1870     3.8180 ho         1 N33       0.456000
     60 HO13         1.7380    -6.5330     2.4890 ho         1 N33       0.457000
     61 H23          1.8620    -3.4490     2.9700 h1         1 N33       0.041700
     62 H231         0.2720    -5.2520     3.4620 hn         1 N33       0.407500
     63 H232        -0.4590    -3.8250     3.3860 hn         1 N33       0.407500
     64 H33          0.0030    -2.1620     1.7670 h1         1 N33       0.065700
     65 H43         -0.1870    -2.6720    -0.6990 h1         1 N33       0.097700
     66 HO43        -1.1010    -4.4310     1.2920 ho         1 N33       0.541000
     67 H53          0.1180    -5.1500    -1.2060 h1         1 N33       0.082700
     68 H631         2.4660    -4.9860    -1.8940 h1         1 N33       0.056200
     69 H632         2.6610    -3.4680    -1.0270 h1         1 N33       0.056200
     70 HO63         0.8790    -3.8980    -3.1550 ho         1 N33       0.500000
     71 H771         2.2860    -1.2370     2.6070 h2         1 N33       0.062200
     72 H772         3.1470    -0.6350     1.1660 h2         1 N33       0.062200
     73 H13          2.9410    -4.4200     1.0910 h2         1 N33       0.076700
@<TRIPOS>BOND
     1     1     2 1   
     2     1     3 1   
     3     1    10 1   
     4     1    36 1   
     5     2    18 1   
     6     3     4 1   
     7     3     5 1   
     8     3    37 1   
     9     4    38 1   
    10     4    39 1   
    11     5     6 1   
    12     5     7 1   
    13     5    40 1   
    14     6    35 1   
    15     7     8 1   
    16     7     9 1   
    17     7    41 1   
    18     8    42 1   
    19     9    10 1   
    20     9    11 1   
    21     9    43 1   
    22    11    12 1   
    23    11    44 1   
    24    11    45 1   
    25    12    46 1   
    26    13    14 1   
    27    13    15 1   
    28    13    21 1   
    29    13    47 1   
    30    14    48 1   
    31    14    49 1   
    32    15    16 1   
    33    15    50 1   
    34    15    51 1   
    35    16    17 1   
    36    16    18 1   
    37    16    52 1   
    38    17    53 1   
    39    17    54 1   
    40    18    19 1   
    41    18    55 1   
    42    19    20 1   
    43    19    21 1   
    44    19    56 1   
    45    20    57 1   
    46    21    22 1   
    47    21    58 1   
    48    22    59 1   
    49    23    24 1   
    50    23    25 1   
    51    23    32 1   
    52    23    73 1   
    53    24    60 1   
    54    25    26 1   
    55    25    27 1   
    56    25    61 1   
    57    26    62 1   
    58    26    63 1   
    59    27    28 1   
    60    27    29 1   
    61    27    64 1   
    62    28    35 1   
    63    29    30 1   
    64    29    31 1   
    65    29    65 1   
    66    30    66 1   
    67    31    32 1   
    68    31    33 1   
    69    31    67 1   
    70    33    34 1   
    71    33    68 1   
    72    33    69 1   
    73    34    70 1   
    74    35    71 1   
    75    35    72 1   
@<TRIPOS>SUBSTRUCTURE
     1 N33         1 TEMP              0 ****  ****    0 ROOT
