@<TRIPOS>MOLECULE
N34
   63    66     1     0     0
SMALL
No Charge or Current Charge


@<TRIPOS>ATOM
      1 C4          -2.1390     0.6410     0.1980 ca         1 N34       0.283400
      2 C5          -4.8320    -0.2370     0.1870 ca         1 N34       0.204000
      3 C6          -2.4840    -0.5540    -0.4120 ca         1 N34      -0.338500
      4 C7           1.5930     0.6800     0.1540 ce         1 N34      -0.493800
      5 C8           1.9000     1.7800     0.8990 c2         1 N34       0.254900
      6 C10          2.6920    -0.2240    -0.2940 c          1 N34       0.600200
      7 C13          4.0910     2.4930    -0.8960 c5         1 N34       0.144800
      8 C15          8.1610    -1.5010     0.0470 c3         1 N34      -0.085100
      9 C17          7.3730    -2.8220     2.0460 c3         1 N34      -0.085100
     10 C21          6.9560    -2.2670     0.6570 c3         1 N34      -0.042000
     11 O31         -7.5660     0.6910     1.6760 o          1 N34      -0.524500
     12 S34         -7.5910     0.0920     0.3410 s6         1 N34       1.189100
     13 O30         -8.6190    -0.8840    -0.0210 o          1 N34      -0.524500
     14 C18         -7.5560     1.3770    -0.8900 c3         1 N34      -0.382100
     15 N26         -6.1490    -0.7160     0.1550 nu         1 N34      -0.872100
     16 C2          -4.4690     0.9750     0.8210 ca         1 N34      -0.017000
     17 C3          -3.8210    -1.0030    -0.4280 ca         1 N34      -0.023000
     18 S33         -1.1780    -1.4500    -1.1740 sy         1 N34       1.191600
     19 O28         -0.6340    -2.4280    -0.2330 o          1 N34      -0.522500
     20 O29         -1.5480    -1.8190    -2.5410 o          1 N34      -0.522500
     21 N23          0.0340    -0.3530    -1.3420 nu         1 N34      -0.867300
     22 C9           0.2120     0.3430    -0.1960 ce         1 N34       0.828500
     23 N22         -0.7980     1.0740     0.1900 nf         1 N34      -0.780100
     24 C1          -3.1300     1.4100     0.8210 ca         1 N34      -0.117000
     25 O27          2.4580    -1.3220    -0.7800 o          1 N34      -0.596000
     26 N24          4.0220     0.2380    -0.1380 n          1 N34      -0.265200
     27 N25          4.3240     1.5830     0.2540 n3         1 N34      -0.473600
     28 C11          3.8940     3.8680    -0.1860 c5         1 N34      -0.091400
     29 C14          3.3850     1.9990     1.3220 c5         1 N34       0.179700
     30 C12          3.7580     3.5110     1.3340 c5         1 N34      -0.070400
     31 O32          0.9590     2.6250     1.3480 oh         1 N34      -0.522100
     32 C19          5.7350    -1.3140     0.8540 c3         1 N34      -0.090400
     33 C16          6.5830    -3.4610    -0.2620 c3         1 N34      -0.085100
     34 H13          4.9400     2.4980    -1.5930 h1         1 N34       0.059700
     35 H13A         3.1920     2.2260    -1.4690 h1         1 N34       0.059700
     36 H15          9.0470    -2.1460    -0.0040 hc         1 N34       0.034256
     37 H15A         7.9450    -1.1590    -0.9720 hc         1 N34       0.034256
     38 H15B         8.4160    -0.6240     0.6540 hc         1 N34       0.034256
     39 H17          7.6540    -2.0080     2.7250 hc         1 N34       0.034256
     40 H17A         6.5500    -3.3800     2.5090 hc         1 N34       0.034256
     41 H17B         8.2310    -3.4990     1.9580 hc         1 N34       0.034256
     42 H20          4.8700    -1.4220    -1.1480 h1         1 N34       0.066200
     43 H20A         5.9530    -0.0500    -0.9020 h1         1 N34       0.066200
     44 H18         -6.7090     2.0320    -0.6690 h1         1 N34       0.105033
     45 H18A        -7.4420     0.8950    -1.8670 h1         1 N34       0.105033
     46 H18B        -8.5040     1.9190    -0.8240 h1         1 N34       0.105033
     47 HN26        -6.3580    -1.5370    -0.3990 hn         1 N34       0.491000
     48 H2          -5.2130     1.5870     1.3200 ha         1 N34       0.151000
     49 H3          -4.0750    -1.9410    -0.9180 ha         1 N34       0.130000
     50 HN23         0.8350    -0.9550    -1.4680 hn         1 N34       0.573000
     51 H1          -2.8630     2.3450     1.3060 ha         1 N34       0.134000
     52 H11          4.7410     4.5400    -0.3630 hc         1 N34       0.058200
     53 H11A         2.9990     4.3740    -0.5650 hc         1 N34       0.058200
     54 H14          3.5970     1.5110     2.2830 h1         1 N34       0.110700
     55 H12          4.7150     3.6580     1.8490 hc         1 N34       0.071200
     56 H12A         3.0270     4.1390     1.8570 hc         1 N34       0.071200
     57 HO32         0.1060     2.2520     0.9880 ho         1 N34       0.563000
     58 H19          6.0130    -0.5170     1.5540 hc         1 N34       0.049200
     59 H19A         4.9220    -1.8720     1.3350 hc         1 N34       0.049200
     60 H16          7.4100    -4.1800    -0.3230 hc         1 N34       0.034256
     61 H16A         5.7030    -3.9920     0.1220 hc         1 N34       0.034256
     62 H16B         6.3620    -3.1290    -1.2830 hc         1 N34       0.034256
     63 C20          5.1690    -0.6530    -0.4260 c3         1 N34       0.132000
@<TRIPOS>BOND
     1     1     3 ar  
     2     1    23 1   
     3     1    24 ar  
     4     2    15 1   
     5     2    16 ar  
     6     2    17 ar  
     7     3    17 ar  
     8     3    18 1   
     9     4     5 2   
    10     4     6 1   
    11     4    22 1   
    12     5    29 1   
    13     5    31 1   
    14     6    25 2   
    15     6    26 1   
    16     7    27 1   
    17     7    28 1   
    18     7    34 1   
    19     7    35 1   
    20     8    10 1   
    21     8    36 1   
    22     8    37 1   
    23     8    38 1   
    24     9    10 1   
    25     9    39 1   
    26     9    40 1   
    27     9    41 1   
    28    10    32 1   
    29    10    33 1   
    30    11    12 2   
    31    12    13 2   
    32    12    14 1   
    33    12    15 1   
    34    14    44 1   
    35    14    45 1   
    36    14    46 1   
    37    15    47 1   
    38    16    24 ar  
    39    16    48 1   
    40    17    49 1   
    41    18    19 2   
    42    18    20 2   
    43    18    21 1   
    44    21    22 1   
    45    21    50 1   
    46    22    23 2   
    47    24    51 1   
    48    26    27 1   
    49    26    63 1   
    50    27    29 1   
    51    28    30 1   
    52    28    52 1   
    53    28    53 1   
    54    29    30 1   
    55    29    54 1   
    56    30    55 1   
    57    30    56 1   
    58    31    57 1   
    59    32    58 1   
    60    32    59 1   
    61    32    63 1   
    62    33    60 1   
    63    33    61 1   
    64    33    62 1   
    65    42    63 1   
    66    43    63 1   
@<TRIPOS>SUBSTRUCTURE
     1 N34         1 TEMP              0 ****  ****    0 ROOT
